
******************************directory****************************
spec_dir: /home/cuihongwei/experiment/mcpat-gem5-master/spec2006/benchspec/CPU2006
run_dir:  /home/cuihongwei/experiment/mcpat-gem5-master/spec2006/benchspec/CPU2006/410.bwaves/run/run_base_ref_amd64.0001
gem5_dir: /home/cuihongwei/experiment/experiment-gem5/raw-gem5
gem5_output_dir: /home/cuihongwei/experiment/experiment-gem5/raw-gem5/output/410.bwaves/alpha-OLD-410.bwaves-input1-190330-224119
benchmark_output:/home/cuihongwei/experiment/experiment-gem5/raw-gem5/output/410.bwaves/alpha-OLD-410.bwaves-input1-190330-224119
checkpoint_dir:/home/cuihongwei/experiment/experiment-gem5/pubs-gem5/output/alpha-410.bwaves-checkpoint-input1

******************************benchmark****************************
target:     410.bwaves
executable: bwaves
args:       
input:      
output:     /home/cuihongwei/experiment/experiment-gem5/raw-gem5/output/410.bwaves/alpha-OLD-410.bwaves-input1-190330-224119/bwaves.out
errout:     /home/cuihongwei/experiment/experiment-gem5/raw-gem5/output/410.bwaves/alpha-OLD-410.bwaves-input1-190330-224119/bwaves.err

******************************gem5****************************
arch:       /home/cuihongwei/experiment/experiment-gem5/raw-gem5/build/ALPHA/gem5.opt
config:     /home/cuihongwei/experiment/experiment-gem5/raw-gem5/configs/example/se.py
args:       --num-cpus=1 --mem-size=8GB --caches --l1d_size=32kB --l1d_assoc=8 --l1i_size=32kB --l1i_assoc=8 --l2cache --l2_size=2MB --l2_assoc=16 --at-instruction --checkpoint-restore=5000000000 --maxinsts=100000000 --cpu-type=DerivO3CPU
debugFlag:  --debug-flags=ShowRunning

******************************simulation****************************
start time:(year-mon-day hour-minute-second)19-03-30 22-41-19
gem5 Simulator System.  http://gem5.org
gem5 is copyrighted software; use the --copyright option for details.

gem5 compiled Mar 30 2019 20:24:53
gem5 started Mar 30 2019 22:41:19
gem5 executing on mprc-R730, pid 13903
command line: /home/cuihongwei/experiment/experiment-gem5/raw-gem5/build/ALPHA/gem5.opt --outdir=/home/cuihongwei/experiment/experiment-gem5/raw-gem5/output/410.bwaves/alpha-OLD-410.bwaves-input1-190330-224119 --debug-flags=ShowRunning /home/cuihongwei/experiment/experiment-gem5/raw-gem5/configs/example/se.py --num-cpus=1 --mem-size=8GB --caches --l1d_size=32kB --l1d_assoc=8 --l1i_size=32kB --l1i_assoc=8 --l2cache --l2_size=2MB --l2_assoc=16 --at-instruction --checkpoint-restore=5000000000 --maxinsts=100000000 --cpu-type=DerivO3CPU --checkpoint-dir=/home/cuihongwei/experiment/experiment-gem5/pubs-gem5/output/alpha-410.bwaves-checkpoint-input1 --cmd=/home/cuihongwei/experiment/mcpat-gem5-master/spec2006/benchspec/CPU2006/410.bwaves/run/build_peak_alpha.0001/bwaves --options= --output=/home/cuihongwei/experiment/experiment-gem5/raw-gem5/output/410.bwaves/alpha-OLD-410.bwaves-input1-190330-224119/bwaves.out --input= --errout=/home/cuihongwei/experiment/experiment-gem5/raw-gem5/output/410.bwaves/alpha-OLD-410.bwaves-input1-190330-224119/bwaves.err

Global frequency set at 1000000000000 ticks per second
Switch at curTick count:10000
Switched CPUS @ tick 3255500838250
switching cpus
**** REAL SIMULATION ****
3255500839000: system.switch_cpus: Raw Gem5 Running in Cycle:               0, Inst:               0
3255551585000: system.switch_cpus: Raw Gem5 Running in Cycle:          100000, Inst:           84333
3255601585000: system.switch_cpus: Raw Gem5 Running in Cycle:          200000, Inst:          173871
3255651585000: system.switch_cpus: Raw Gem5 Running in Cycle:          300000, Inst:          264927
3255701585000: system.switch_cpus: Raw Gem5 Running in Cycle:          400000, Inst:          356952
3255751585000: system.switch_cpus: Raw Gem5 Running in Cycle:          500000, Inst:          445773
3255801585000: system.switch_cpus: Raw Gem5 Running in Cycle:          600000, Inst:          538447
3255851585000: system.switch_cpus: Raw Gem5 Running in Cycle:          700000, Inst:          628020
3255901585000: system.switch_cpus: Raw Gem5 Running in Cycle:          800000, Inst:          716948
3255951585000: system.switch_cpus: Raw Gem5 Running in Cycle:          900000, Inst:          808915
3256001585000: system.switch_cpus: Raw Gem5 Running in Cycle:         1000000, Inst:          899964
3256051585000: system.switch_cpus: Raw Gem5 Running in Cycle:         1100000, Inst:          989538
3256101585000: system.switch_cpus: Raw Gem5 Running in Cycle:         1200000, Inst:         1080060
3256151585000: system.switch_cpus: Raw Gem5 Running in Cycle:         1300000, Inst:         1170282
3256201585000: system.switch_cpus: Raw Gem5 Running in Cycle:         1400000, Inst:         1261738
3256251585000: system.switch_cpus: Raw Gem5 Running in Cycle:         1500000, Inst:         1352346
3256301585000: system.switch_cpus: Raw Gem5 Running in Cycle:         1600000, Inst:         1442128
3256351585000: system.switch_cpus: Raw Gem5 Running in Cycle:         1700000, Inst:         1533330
3256401585000: system.switch_cpus: Raw Gem5 Running in Cycle:         1800000, Inst:         1625888
3256451585000: system.switch_cpus: Raw Gem5 Running in Cycle:         1900000, Inst:         1716367
3256501585000: system.switch_cpus: Raw Gem5 Running in Cycle:         2000000, Inst:         1807063
3256551585000: system.switch_cpus: Raw Gem5 Running in Cycle:         2100000, Inst:         1898253
3256601585000: system.switch_cpus: Raw Gem5 Running in Cycle:         2200000, Inst:         1986602
3256651585000: system.switch_cpus: Raw Gem5 Running in Cycle:         2300000, Inst:         2078629
3256701585000: system.switch_cpus: Raw Gem5 Running in Cycle:         2400000, Inst:         2168361
3256751585000: system.switch_cpus: Raw Gem5 Running in Cycle:         2500000, Inst:         2259669
3256801585000: system.switch_cpus: Raw Gem5 Running in Cycle:         2600000, Inst:         2349348
3256851585000: system.switch_cpus: Raw Gem5 Running in Cycle:         2700000, Inst:         2439949
3256901585000: system.switch_cpus: Raw Gem5 Running in Cycle:         2800000, Inst:         2530035
3256951585000: system.switch_cpus: Raw Gem5 Running in Cycle:         2900000, Inst:         2620964
3257001585000: system.switch_cpus: Raw Gem5 Running in Cycle:         3000000, Inst:         2709633
3257051585000: system.switch_cpus: Raw Gem5 Running in Cycle:         3100000, Inst:         2800848
3257101585000: system.switch_cpus: Raw Gem5 Running in Cycle:         3200000, Inst:         2892930
3257151585000: system.switch_cpus: Raw Gem5 Running in Cycle:         3300000, Inst:         2983973
3257201585000: system.switch_cpus: Raw Gem5 Running in Cycle:         3400000, Inst:         3074457
3257251585000: system.switch_cpus: Raw Gem5 Running in Cycle:         3500000, Inst:         3165663
3257301585000: system.switch_cpus: Raw Gem5 Running in Cycle:         3600000, Inst:         3255086
3257351585000: system.switch_cpus: Raw Gem5 Running in Cycle:         3700000, Inst:         3344103
3257401585000: system.switch_cpus: Raw Gem5 Running in Cycle:         3800000, Inst:         3435091
3257451585000: system.switch_cpus: Raw Gem5 Running in Cycle:         3900000, Inst:         3525616
3257501585000: system.switch_cpus: Raw Gem5 Running in Cycle:         4000000, Inst:         3617601
3257551585000: system.switch_cpus: Raw Gem5 Running in Cycle:         4100000, Inst:         3705657
3257601585000: system.switch_cpus: Raw Gem5 Running in Cycle:         4200000, Inst:         3798295
3257651585000: system.switch_cpus: Raw Gem5 Running in Cycle:         4300000, Inst:         3887154
3257701585000: system.switch_cpus: Raw Gem5 Running in Cycle:         4400000, Inst:         3977470
3257751585000: system.switch_cpus: Raw Gem5 Running in Cycle:         4500000, Inst:         4067028
3257801585000: system.switch_cpus: Raw Gem5 Running in Cycle:         4600000, Inst:         4157330
3257851585000: system.switch_cpus: Raw Gem5 Running in Cycle:         4700000, Inst:         4249338
3257901585000: system.switch_cpus: Raw Gem5 Running in Cycle:         4800000, Inst:         4340646
3257951585000: system.switch_cpus: Raw Gem5 Running in Cycle:         4900000, Inst:         4431903
3258001585000: system.switch_cpus: Raw Gem5 Running in Cycle:         5000000, Inst:         4521777
3258051585000: system.switch_cpus: Raw Gem5 Running in Cycle:         5100000, Inst:         4612488
3258101585000: system.switch_cpus: Raw Gem5 Running in Cycle:         5200000, Inst:         4701842
3258151585000: system.switch_cpus: Raw Gem5 Running in Cycle:         5300000, Inst:         4793023
3258201585000: system.switch_cpus: Raw Gem5 Running in Cycle:         5400000, Inst:         4885119
3258251585000: system.switch_cpus: Raw Gem5 Running in Cycle:         5500000, Inst:         4975594
3258301585000: system.switch_cpus: Raw Gem5 Running in Cycle:         5600000, Inst:         5066797
3258351585000: system.switch_cpus: Raw Gem5 Running in Cycle:         5700000, Inst:         5158003
3258401585000: system.switch_cpus: Raw Gem5 Running in Cycle:         5800000, Inst:         5247129
3258451585000: system.switch_cpus: Raw Gem5 Running in Cycle:         5900000, Inst:         5338606
3258501585000: system.switch_cpus: Raw Gem5 Running in Cycle:         6000000, Inst:         5428272
3258551585000: system.switch_cpus: Raw Gem5 Running in Cycle:         6100000, Inst:         5519366
3258601585000: system.switch_cpus: Raw Gem5 Running in Cycle:         6200000, Inst:         5610572
3258651585000: system.switch_cpus: Raw Gem5 Running in Cycle:         6300000, Inst:         5701788
3258701585000: system.switch_cpus: Raw Gem5 Running in Cycle:         6400000, Inst:         5790511
3258751585000: system.switch_cpus: Raw Gem5 Running in Cycle:         6500000, Inst:         5882526
3258801585000: system.switch_cpus: Raw Gem5 Running in Cycle:         6600000, Inst:         5972052
3258851585000: system.switch_cpus: Raw Gem5 Running in Cycle:         6700000, Inst:         6061728
3258901585000: system.switch_cpus: Raw Gem5 Running in Cycle:         6800000, Inst:         6153327
3258951585000: system.switch_cpus: Raw Gem5 Running in Cycle:         6900000, Inst:         6244038
3259002051500: system.switch_cpus: Raw Gem5 Running in Cycle:         7000000, Inst:         6335419
3259052051500: system.switch_cpus: Raw Gem5 Running in Cycle:         7100000, Inst:         6426769
3259102051500: system.switch_cpus: Raw Gem5 Running in Cycle:         7200000, Inst:         6517549
3259152051500: system.switch_cpus: Raw Gem5 Running in Cycle:         7300000, Inst:         6608875
3259202051500: system.switch_cpus: Raw Gem5 Running in Cycle:         7400000, Inst:         6699428
3259252051500: system.switch_cpus: Raw Gem5 Running in Cycle:         7500000, Inst:         6789503
3259302051500: system.switch_cpus: Raw Gem5 Running in Cycle:         7600000, Inst:         6881014
3259352051500: system.switch_cpus: Raw Gem5 Running in Cycle:         7700000, Inst:         6972187
3259402051500: system.switch_cpus: Raw Gem5 Running in Cycle:         7800000, Inst:         7062103
3259452051500: system.switch_cpus: Raw Gem5 Running in Cycle:         7900000, Inst:         7153159
3259502051500: system.switch_cpus: Raw Gem5 Running in Cycle:         8000000, Inst:         7243033
3259552051500: system.switch_cpus: Raw Gem5 Running in Cycle:         8100000, Inst:         7332749
3259602051500: system.switch_cpus: Raw Gem5 Running in Cycle:         8200000, Inst:         7423171
3259652051500: system.switch_cpus: Raw Gem5 Running in Cycle:         8300000, Inst:         7514249
3259702051500: system.switch_cpus: Raw Gem5 Running in Cycle:         8400000, Inst:         7605353
3259752051500: system.switch_cpus: Raw Gem5 Running in Cycle:         8500000, Inst:         7696661
3259802051500: system.switch_cpus: Raw Gem5 Running in Cycle:         8600000, Inst:         7786283
3259852051500: system.switch_cpus: Raw Gem5 Running in Cycle:         8700000, Inst:         7877611
3259902051500: system.switch_cpus: Raw Gem5 Running in Cycle:         8800000, Inst:         7969867
3259952051500: system.switch_cpus: Raw Gem5 Running in Cycle:         8900000, Inst:         8058185
3260002051500: system.switch_cpus: Raw Gem5 Running in Cycle:         9000000, Inst:         8149271
3260052051500: system.switch_cpus: Raw Gem5 Running in Cycle:         9100000, Inst:         8238946
3260102051500: system.switch_cpus: Raw Gem5 Running in Cycle:         9200000, Inst:         8330263
3260152051500: system.switch_cpus: Raw Gem5 Running in Cycle:         9300000, Inst:         8421319
3260202051500: system.switch_cpus: Raw Gem5 Running in Cycle:         9400000, Inst:         8512200
3260252051500: system.switch_cpus: Raw Gem5 Running in Cycle:         9500000, Inst:         8601784
3260302051500: system.switch_cpus: Raw Gem5 Running in Cycle:         9600000, Inst:         8690928
3260352051500: system.switch_cpus: Raw Gem5 Running in Cycle:         9700000, Inst:         8780227
3260402051500: system.switch_cpus: Raw Gem5 Running in Cycle:         9800000, Inst:         8872309
3260452051500: system.switch_cpus: Raw Gem5 Running in Cycle:         9900000, Inst:         8962630
3260502051500: system.switch_cpus: Raw Gem5 Running in Cycle:        10000000, Inst:         9051421
3260552051500: system.switch_cpus: Raw Gem5 Running in Cycle:        10100000, Inst:         9144041
3260602051500: system.switch_cpus: Raw Gem5 Running in Cycle:        10200000, Inst:         9233705
3260652051500: system.switch_cpus: Raw Gem5 Running in Cycle:        10300000, Inst:         9323259
3260702051500: system.switch_cpus: Raw Gem5 Running in Cycle:        10400000, Inst:         9412847
3260752051500: system.switch_cpus: Raw Gem5 Running in Cycle:        10500000, Inst:         9502633
3260802051500: system.switch_cpus: Raw Gem5 Running in Cycle:        10600000, Inst:         9593834
3260852051500: system.switch_cpus: Raw Gem5 Running in Cycle:        10700000, Inst:         9686278
3260902051500: system.switch_cpus: Raw Gem5 Running in Cycle:        10800000, Inst:         9775790
3260952051500: system.switch_cpus: Raw Gem5 Running in Cycle:        10900000, Inst:         9865694
3261002051500: system.switch_cpus: Raw Gem5 Running in Cycle:        11000000, Inst:         9956783
3261052051500: system.switch_cpus: Raw Gem5 Running in Cycle:        11100000, Inst:        10044688
3261102051500: system.switch_cpus: Raw Gem5 Running in Cycle:        11200000, Inst:        10136518
3261152051500: system.switch_cpus: Raw Gem5 Running in Cycle:        11300000, Inst:        10230180
3261202051500: system.switch_cpus: Raw Gem5 Running in Cycle:        11400000, Inst:        10318603
3261252051500: system.switch_cpus: Raw Gem5 Running in Cycle:        11500000, Inst:        10409468
3261302051500: system.switch_cpus: Raw Gem5 Running in Cycle:        11600000, Inst:        10500577
3261352051500: system.switch_cpus: Raw Gem5 Running in Cycle:        11700000, Inst:        10590194
3261402051500: system.switch_cpus: Raw Gem5 Running in Cycle:        11800000, Inst:        10680763
3261452051500: system.switch_cpus: Raw Gem5 Running in Cycle:        11900000, Inst:        10770637
3261502051500: system.switch_cpus: Raw Gem5 Running in Cycle:        12000000, Inst:        10860419
3261552051500: system.switch_cpus: Raw Gem5 Running in Cycle:        12100000, Inst:        10951621
3261602051500: system.switch_cpus: Raw Gem5 Running in Cycle:        12200000, Inst:        11042734
3261652051500: system.switch_cpus: Raw Gem5 Running in Cycle:        12300000, Inst:        11134132
3261702051500: system.switch_cpus: Raw Gem5 Running in Cycle:        12400000, Inst:        11225288
3261752051500: system.switch_cpus: Raw Gem5 Running in Cycle:        12500000, Inst:        11314765
3261802051500: system.switch_cpus: Raw Gem5 Running in Cycle:        12600000, Inst:        11402875
3261852051500: system.switch_cpus: Raw Gem5 Running in Cycle:        12700000, Inst:        11495278
3261902051500: system.switch_cpus: Raw Gem5 Running in Cycle:        12800000, Inst:        11584957
3261952051500: system.switch_cpus: Raw Gem5 Running in Cycle:        12900000, Inst:        11674675
3262002051500: system.switch_cpus: Raw Gem5 Running in Cycle:        13000000, Inst:        11765881
3262052051500: system.switch_cpus: Raw Gem5 Running in Cycle:        13100000, Inst:        11856205
3262102051500: system.switch_cpus: Raw Gem5 Running in Cycle:        13200000, Inst:        11947919
3262152051500: system.switch_cpus: Raw Gem5 Running in Cycle:        13300000, Inst:        12037868
3262202051500: system.switch_cpus: Raw Gem5 Running in Cycle:        13400000, Inst:        12127294
3262252051500: system.switch_cpus: Raw Gem5 Running in Cycle:        13500000, Inst:        12218500
3262302051500: system.switch_cpus: Raw Gem5 Running in Cycle:        13600000, Inst:        12309655
3262352051500: system.switch_cpus: Raw Gem5 Running in Cycle:        13700000, Inst:        12400903
3262402051500: system.switch_cpus: Raw Gem5 Running in Cycle:        13800000, Inst:        12491688
3262452051500: system.switch_cpus: Raw Gem5 Running in Cycle:        13900000, Inst:        12580750
3262502051500: system.switch_cpus: Raw Gem5 Running in Cycle:        14000000, Inst:        12670225
3262552051500: system.switch_cpus: Raw Gem5 Running in Cycle:        14100000, Inst:        12760648
3262602051500: system.switch_cpus: Raw Gem5 Running in Cycle:        14200000, Inst:        12851863
3262652051500: system.switch_cpus: Raw Gem5 Running in Cycle:        14300000, Inst:        12943082
3262702051500: system.switch_cpus: Raw Gem5 Running in Cycle:        14400000, Inst:        13034237
3262752051500: system.switch_cpus: Raw Gem5 Running in Cycle:        14500000, Inst:        13124826
3262802051500: system.switch_cpus: Raw Gem5 Running in Cycle:        14600000, Inst:        13215418
3262852051500: system.switch_cpus: Raw Gem5 Running in Cycle:        14700000, Inst:        13306386
3262902051500: system.switch_cpus: Raw Gem5 Running in Cycle:        14800000, Inst:        13395896
3262952051500: system.switch_cpus: Raw Gem5 Running in Cycle:        14900000, Inst:        13487058
3263002051500: system.switch_cpus: Raw Gem5 Running in Cycle:        15000000, Inst:        13576589
3263052051500: system.switch_cpus: Raw Gem5 Running in Cycle:        15100000, Inst:        13667811
3263102051500: system.switch_cpus: Raw Gem5 Running in Cycle:        15200000, Inst:        13759005
3263152051500: system.switch_cpus: Raw Gem5 Running in Cycle:        15300000, Inst:        13849550
3263202051500: system.switch_cpus: Raw Gem5 Running in Cycle:        15400000, Inst:        13939928
3263252051500: system.switch_cpus: Raw Gem5 Running in Cycle:        15500000, Inst:        14029215
3263302051500: system.switch_cpus: Raw Gem5 Running in Cycle:        15600000, Inst:        14118848
3263352051500: system.switch_cpus: Raw Gem5 Running in Cycle:        15700000, Inst:        14210435
3263402051500: system.switch_cpus: Raw Gem5 Running in Cycle:        15800000, Inst:        14301302
3263452051500: system.switch_cpus: Raw Gem5 Running in Cycle:        15900000, Inst:        14390840
3263502051500: system.switch_cpus: Raw Gem5 Running in Cycle:        16000000, Inst:        14483013
3263552051500: system.switch_cpus: Raw Gem5 Running in Cycle:        16100000, Inst:        14573127
3263602051500: system.switch_cpus: Raw Gem5 Running in Cycle:        16200000, Inst:        14662581
3263652051500: system.switch_cpus: Raw Gem5 Running in Cycle:        16300000, Inst:        14752355
3263702051500: system.switch_cpus: Raw Gem5 Running in Cycle:        16400000, Inst:        14842383
3263752051500: system.switch_cpus: Raw Gem5 Running in Cycle:        16500000, Inst:        14934665
3263802051500: system.switch_cpus: Raw Gem5 Running in Cycle:        16600000, Inst:        15025661
3263852051500: system.switch_cpus: Raw Gem5 Running in Cycle:        16700000, Inst:        15115511
3263902051500: system.switch_cpus: Raw Gem5 Running in Cycle:        16800000, Inst:        15206628
3263952051500: system.switch_cpus: Raw Gem5 Running in Cycle:        16900000, Inst:        15296207
3264002051500: system.switch_cpus: Raw Gem5 Running in Cycle:        17000000, Inst:        15384110
3264052051500: system.switch_cpus: Raw Gem5 Running in Cycle:        17100000, Inst:        15476708
3264102051500: system.switch_cpus: Raw Gem5 Running in Cycle:        17200000, Inst:        15568488
3264152051500: system.switch_cpus: Raw Gem5 Running in Cycle:        17300000, Inst:        15657735
3264202051500: system.switch_cpus: Raw Gem5 Running in Cycle:        17400000, Inst:        15748887
3264252051500: system.switch_cpus: Raw Gem5 Running in Cycle:        17500000, Inst:        15840093
3264302051500: system.switch_cpus: Raw Gem5 Running in Cycle:        17600000, Inst:        15929162
3264352051500: system.switch_cpus: Raw Gem5 Running in Cycle:        17700000, Inst:        16020377
3264402051500: system.switch_cpus: Raw Gem5 Running in Cycle:        17800000, Inst:        16108801
3264452051500: system.switch_cpus: Raw Gem5 Running in Cycle:        17900000, Inst:        16199978
3264502051500: system.switch_cpus: Raw Gem5 Running in Cycle:        18000000, Inst:        16292596
3264552051500: system.switch_cpus: Raw Gem5 Running in Cycle:        18100000, Inst:        16383802
3264602051500: system.switch_cpus: Raw Gem5 Running in Cycle:        18200000, Inst:        16475219
3264652051500: system.switch_cpus: Raw Gem5 Running in Cycle:        18300000, Inst:        16566275
3264702051500: system.switch_cpus: Raw Gem5 Running in Cycle:        18400000, Inst:        16655546
3264752051500: system.switch_cpus: Raw Gem5 Running in Cycle:        18500000, Inst:        16744438
3264802051500: system.switch_cpus: Raw Gem5 Running in Cycle:        18600000, Inst:        16836635
3264852051500: system.switch_cpus: Raw Gem5 Running in Cycle:        18700000, Inst:        16926403
3264902051500: system.switch_cpus: Raw Gem5 Running in Cycle:        18800000, Inst:        17017379
3264952051500: system.switch_cpus: Raw Gem5 Running in Cycle:        18900000, Inst:        17106869
3265002051500: system.switch_cpus: Raw Gem5 Running in Cycle:        19000000, Inst:        17197929
3265052051500: system.switch_cpus: Raw Gem5 Running in Cycle:        19100000, Inst:        17289116
3265102051500: system.switch_cpus: Raw Gem5 Running in Cycle:        19200000, Inst:        17377137
3265152051500: system.switch_cpus: Raw Gem5 Running in Cycle:        19300000, Inst:        17468381
3265202051500: system.switch_cpus: Raw Gem5 Running in Cycle:        19400000, Inst:        17561102
3265252051500: system.switch_cpus: Raw Gem5 Running in Cycle:        19500000, Inst:        17652180
3265302051500: system.switch_cpus: Raw Gem5 Running in Cycle:        19600000, Inst:        17742488
3265352051500: system.switch_cpus: Raw Gem5 Running in Cycle:        19700000, Inst:        17833577
3265402051500: system.switch_cpus: Raw Gem5 Running in Cycle:        19800000, Inst:        17923270
3265452051500: system.switch_cpus: Raw Gem5 Running in Cycle:        19900000, Inst:        18012279
3265502051500: system.switch_cpus: Raw Gem5 Running in Cycle:        20000000, Inst:        18104639
3265552051500: system.switch_cpus: Raw Gem5 Running in Cycle:        20100000, Inst:        18195849
3265602051500: system.switch_cpus: Raw Gem5 Running in Cycle:        20200000, Inst:        18287405
3265652051500: system.switch_cpus: Raw Gem5 Running in Cycle:        20300000, Inst:        18378107
3265702051500: system.switch_cpus: Raw Gem5 Running in Cycle:        20400000, Inst:        18469326
3265752051500: system.switch_cpus: Raw Gem5 Running in Cycle:        20500000, Inst:        18559352
3265802051500: system.switch_cpus: Raw Gem5 Running in Cycle:        20600000, Inst:        18650344
3265852051500: system.switch_cpus: Raw Gem5 Running in Cycle:        20700000, Inst:        18739848
3265902051500: system.switch_cpus: Raw Gem5 Running in Cycle:        20800000, Inst:        18829620
3265952051500: system.switch_cpus: Raw Gem5 Running in Cycle:        20900000, Inst:        18919314
3266002051500: system.switch_cpus: Raw Gem5 Running in Cycle:        21000000, Inst:        19011707
3266052051500: system.switch_cpus: Raw Gem5 Running in Cycle:        21100000, Inst:        19101573
3266102051500: system.switch_cpus: Raw Gem5 Running in Cycle:        21200000, Inst:        19192662
3266152051500: system.switch_cpus: Raw Gem5 Running in Cycle:        21300000, Inst:        19283810
3266202051500: system.switch_cpus: Raw Gem5 Running in Cycle:        21400000, Inst:        19371879
3266252051500: system.switch_cpus: Raw Gem5 Running in Cycle:        21500000, Inst:        19462988
3266302051500: system.switch_cpus: Raw Gem5 Running in Cycle:        21600000, Inst:        19554273
3266352051500: system.switch_cpus: Raw Gem5 Running in Cycle:        21700000, Inst:        19645232
3266402051500: system.switch_cpus: Raw Gem5 Running in Cycle:        21800000, Inst:        19735496
3266452051500: system.switch_cpus: Raw Gem5 Running in Cycle:        21900000, Inst:        19826781
3266502051500: system.switch_cpus: Raw Gem5 Running in Cycle:        22000000, Inst:        19916168
3266552051500: system.switch_cpus: Raw Gem5 Running in Cycle:        22100000, Inst:        20006778
3266602051500: system.switch_cpus: Raw Gem5 Running in Cycle:        22200000, Inst:        20095086
3266652051500: system.switch_cpus: Raw Gem5 Running in Cycle:        22300000, Inst:        20184546
3266702051500: system.switch_cpus: Raw Gem5 Running in Cycle:        22400000, Inst:        20276270
3266752051500: system.switch_cpus: Raw Gem5 Running in Cycle:        22500000, Inst:        20367355
3266802051500: system.switch_cpus: Raw Gem5 Running in Cycle:        22600000, Inst:        20457601
3266852051500: system.switch_cpus: Raw Gem5 Running in Cycle:        22700000, Inst:        20549169
3266902051500: system.switch_cpus: Raw Gem5 Running in Cycle:        22800000, Inst:        20638575
3266952051500: system.switch_cpus: Raw Gem5 Running in Cycle:        22900000, Inst:        20726703
3267002051500: system.switch_cpus: Raw Gem5 Running in Cycle:        23000000, Inst:        20818020
3267052051500: system.switch_cpus: Raw Gem5 Running in Cycle:        23100000, Inst:        20909421
3267102051500: system.switch_cpus: Raw Gem5 Running in Cycle:        23200000, Inst:        21000279
3267152051500: system.switch_cpus: Raw Gem5 Running in Cycle:        23300000, Inst:        21091249
3267202051500: system.switch_cpus: Raw Gem5 Running in Cycle:        23400000, Inst:        21181017
3267252051500: system.switch_cpus: Raw Gem5 Running in Cycle:        23500000, Inst:        21271224
3267302051500: system.switch_cpus: Raw Gem5 Running in Cycle:        23600000, Inst:        21361854
3267352051500: system.switch_cpus: Raw Gem5 Running in Cycle:        23700000, Inst:        21451374
3267402051500: system.switch_cpus: Raw Gem5 Running in Cycle:        23800000, Inst:        21542532
3267452051500: system.switch_cpus: Raw Gem5 Running in Cycle:        23900000, Inst:        21634668
3267502051500: system.switch_cpus: Raw Gem5 Running in Cycle:        24000000, Inst:        21724753
3267552051500: system.switch_cpus: Raw Gem5 Running in Cycle:        24100000, Inst:        21816057
3267602051500: system.switch_cpus: Raw Gem5 Running in Cycle:        24200000, Inst:        21907254
3267652051500: system.switch_cpus: Raw Gem5 Running in Cycle:        24300000, Inst:        21995157
3267702051500: system.switch_cpus: Raw Gem5 Running in Cycle:        24400000, Inst:        22084750
3267752051500: system.switch_cpus: Raw Gem5 Running in Cycle:        24500000, Inst:        22175917
3267802051500: system.switch_cpus: Raw Gem5 Running in Cycle:        24600000, Inst:        22265544
3267852051500: system.switch_cpus: Raw Gem5 Running in Cycle:        24700000, Inst:        22356592
3267902051500: system.switch_cpus: Raw Gem5 Running in Cycle:        24800000, Inst:        22446267
3267952051500: system.switch_cpus: Raw Gem5 Running in Cycle:        24900000, Inst:        22536493
3268002051500: system.switch_cpus: Raw Gem5 Running in Cycle:        25000000, Inst:        22627686
3268052051500: system.switch_cpus: Raw Gem5 Running in Cycle:        25100000, Inst:        22716996
3268102051500: system.switch_cpus: Raw Gem5 Running in Cycle:        25200000, Inst:        22807683
3268152051500: system.switch_cpus: Raw Gem5 Running in Cycle:        25300000, Inst:        22899840
3268202051500: system.switch_cpus: Raw Gem5 Running in Cycle:        25400000, Inst:        22991028
3268252051500: system.switch_cpus: Raw Gem5 Running in Cycle:        25500000, Inst:        23082007
3268302051500: system.switch_cpus: Raw Gem5 Running in Cycle:        25600000, Inst:        23174038
3268352051500: system.switch_cpus: Raw Gem5 Running in Cycle:        25700000, Inst:        23263449
3268402051500: system.switch_cpus: Raw Gem5 Running in Cycle:        25800000, Inst:        23353242
3268452051500: system.switch_cpus: Raw Gem5 Running in Cycle:        25900000, Inst:        23444200
3268502051500: system.switch_cpus: Raw Gem5 Running in Cycle:        26000000, Inst:        23535401
3268552051500: system.switch_cpus: Raw Gem5 Running in Cycle:        26100000, Inst:        23625618
3268602051500: system.switch_cpus: Raw Gem5 Running in Cycle:        26200000, Inst:        23715593
3268652051500: system.switch_cpus: Raw Gem5 Running in Cycle:        26300000, Inst:        23807467
3268702051500: system.switch_cpus: Raw Gem5 Running in Cycle:        26400000, Inst:        23897187
3268752051500: system.switch_cpus: Raw Gem5 Running in Cycle:        26500000, Inst:        23986633
3268802051500: system.switch_cpus: Raw Gem5 Running in Cycle:        26600000, Inst:        24077769
3268852051500: system.switch_cpus: Raw Gem5 Running in Cycle:        26700000, Inst:        24168885
3268902051500: system.switch_cpus: Raw Gem5 Running in Cycle:        26800000, Inst:        24258618
3268952051500: system.switch_cpus: Raw Gem5 Running in Cycle:        26900000, Inst:        24351057
3269002051500: system.switch_cpus: Raw Gem5 Running in Cycle:        27000000, Inst:        24442485
3269052051500: system.switch_cpus: Raw Gem5 Running in Cycle:        27100000, Inst:        24532167
3269102051500: system.switch_cpus: Raw Gem5 Running in Cycle:        27200000, Inst:        24623034
3269152051500: system.switch_cpus: Raw Gem5 Running in Cycle:        27300000, Inst:        24711126
3269202051500: system.switch_cpus: Raw Gem5 Running in Cycle:        27400000, Inst:        24802153
3269252051500: system.switch_cpus: Raw Gem5 Running in Cycle:        27500000, Inst:        24893547
3269302051500: system.switch_cpus: Raw Gem5 Running in Cycle:        27600000, Inst:        24983131
3269352051500: system.switch_cpus: Raw Gem5 Running in Cycle:        27700000, Inst:        25074324
3269402051500: system.switch_cpus: Raw Gem5 Running in Cycle:        27800000, Inst:        25166166
3269452051500: system.switch_cpus: Raw Gem5 Running in Cycle:        27900000, Inst:        25255018
3269502051500: system.switch_cpus: Raw Gem5 Running in Cycle:        28000000, Inst:        25346077
3269552051500: system.switch_cpus: Raw Gem5 Running in Cycle:        28100000, Inst:        25436968
3269602051500: system.switch_cpus: Raw Gem5 Running in Cycle:        28200000, Inst:        25525441
3269652051500: system.switch_cpus: Raw Gem5 Running in Cycle:        28300000, Inst:        25618063
3269702051500: system.switch_cpus: Raw Gem5 Running in Cycle:        28400000, Inst:        25709479
3269752051500: system.switch_cpus: Raw Gem5 Running in Cycle:        28500000, Inst:        25799046
3269802051500: system.switch_cpus: Raw Gem5 Running in Cycle:        28600000, Inst:        25891531
3269852051500: system.switch_cpus: Raw Gem5 Running in Cycle:        28700000, Inst:        25979587
3269902051500: system.switch_cpus: Raw Gem5 Running in Cycle:        28800000, Inst:        26070130
3269952051500: system.switch_cpus: Raw Gem5 Running in Cycle:        28900000, Inst:        26162002
3270002051500: system.switch_cpus: Raw Gem5 Running in Cycle:        29000000, Inst:        26251954
3270052051500: system.switch_cpus: Raw Gem5 Running in Cycle:        29100000, Inst:        26342727
3270102051500: system.switch_cpus: Raw Gem5 Running in Cycle:        29200000, Inst:        26432418
3270152051500: system.switch_cpus: Raw Gem5 Running in Cycle:        29300000, Inst:        26522189
3270202051500: system.switch_cpus: Raw Gem5 Running in Cycle:        29400000, Inst:        26613000
3270252051500: system.switch_cpus: Raw Gem5 Running in Cycle:        29500000, Inst:        26703017
3270302051500: system.switch_cpus: Raw Gem5 Running in Cycle:        29600000, Inst:        26793445
3270352051500: system.switch_cpus: Raw Gem5 Running in Cycle:        29700000, Inst:        26884232
3270402051500: system.switch_cpus: Raw Gem5 Running in Cycle:        29800000, Inst:        26974732
3270452051500: system.switch_cpus: Raw Gem5 Running in Cycle:        29900000, Inst:        27064414
3270502051500: system.switch_cpus: Raw Gem5 Running in Cycle:        30000000, Inst:        27156901
3270552051500: system.switch_cpus: Raw Gem5 Running in Cycle:        30100000, Inst:        27246470
3270602051500: system.switch_cpus: Raw Gem5 Running in Cycle:        30200000, Inst:        27336053
3270652051500: system.switch_cpus: Raw Gem5 Running in Cycle:        30300000, Inst:        27427133
3270702051500: system.switch_cpus: Raw Gem5 Running in Cycle:        30400000, Inst:        27516884
3270752051500: system.switch_cpus: Raw Gem5 Running in Cycle:        30500000, Inst:        27608144
3270802051500: system.switch_cpus: Raw Gem5 Running in Cycle:        30600000, Inst:        27697781
3270852051500: system.switch_cpus: Raw Gem5 Running in Cycle:        30700000, Inst:        27788500
3270902051500: system.switch_cpus: Raw Gem5 Running in Cycle:        30800000, Inst:        27878413
3270952051500: system.switch_cpus: Raw Gem5 Running in Cycle:        30900000, Inst:        27969623
3271002051500: system.switch_cpus: Raw Gem5 Running in Cycle:        31000000, Inst:        28058971
3271052051500: system.switch_cpus: Raw Gem5 Running in Cycle:        31100000, Inst:        28150135
3271102051500: system.switch_cpus: Raw Gem5 Running in Cycle:        31200000, Inst:        28241624
3271152051500: system.switch_cpus: Raw Gem5 Running in Cycle:        31300000, Inst:        28332133
3271202051500: system.switch_cpus: Raw Gem5 Running in Cycle:        31400000, Inst:        28423769
3271252051500: system.switch_cpus: Raw Gem5 Running in Cycle:        31500000, Inst:        28513402
3271302051500: system.switch_cpus: Raw Gem5 Running in Cycle:        31600000, Inst:        28603134
3271352051500: system.switch_cpus: Raw Gem5 Running in Cycle:        31700000, Inst:        28693825
3271402051500: system.switch_cpus: Raw Gem5 Running in Cycle:        31800000, Inst:        28783570
3271452051500: system.switch_cpus: Raw Gem5 Running in Cycle:        31900000, Inst:        28874952
3271502051500: system.switch_cpus: Raw Gem5 Running in Cycle:        32000000, Inst:        28966076
3271552051500: system.switch_cpus: Raw Gem5 Running in Cycle:        32100000, Inst:        29054333
3271602051500: system.switch_cpus: Raw Gem5 Running in Cycle:        32200000, Inst:        29146765
3271652051500: system.switch_cpus: Raw Gem5 Running in Cycle:        32300000, Inst:        29236349
3271702051500: system.switch_cpus: Raw Gem5 Running in Cycle:        32400000, Inst:        29326087
3271752051500: system.switch_cpus: Raw Gem5 Running in Cycle:        32500000, Inst:        29416817
3271802051500: system.switch_cpus: Raw Gem5 Running in Cycle:        32600000, Inst:        29507158
3271852051500: system.switch_cpus: Raw Gem5 Running in Cycle:        32700000, Inst:        29598678
3271902051500: system.switch_cpus: Raw Gem5 Running in Cycle:        32800000, Inst:        29690701
3271952051500: system.switch_cpus: Raw Gem5 Running in Cycle:        32900000, Inst:        29781637
3272002051500: system.switch_cpus: Raw Gem5 Running in Cycle:        33000000, Inst:        29873002
3272052051500: system.switch_cpus: Raw Gem5 Running in Cycle:        33100000, Inst:        29962693
3272102051500: system.switch_cpus: Raw Gem5 Running in Cycle:        33200000, Inst:        30050510
3272152051500: system.switch_cpus: Raw Gem5 Running in Cycle:        33300000, Inst:        30142614
3272202051500: system.switch_cpus: Raw Gem5 Running in Cycle:        33400000, Inst:        30234584
3272252051500: system.switch_cpus: Raw Gem5 Running in Cycle:        33500000, Inst:        30323707
3272302051500: system.switch_cpus: Raw Gem5 Running in Cycle:        33600000, Inst:        30414036
3272352051500: system.switch_cpus: Raw Gem5 Running in Cycle:        33700000, Inst:        30504850
3272402051500: system.switch_cpus: Raw Gem5 Running in Cycle:        33800000, Inst:        30594329
3272452051500: system.switch_cpus: Raw Gem5 Running in Cycle:        33900000, Inst:        30684001
3272502051500: system.switch_cpus: Raw Gem5 Running in Cycle:        34000000, Inst:        30774036
3272552051500: system.switch_cpus: Raw Gem5 Running in Cycle:        34100000, Inst:        30864586
3272602051500: system.switch_cpus: Raw Gem5 Running in Cycle:        34200000, Inst:        30956362
3272652051500: system.switch_cpus: Raw Gem5 Running in Cycle:        34300000, Inst:        31047987
3272702051500: system.switch_cpus: Raw Gem5 Running in Cycle:        34400000, Inst:        31138265
3272752051500: system.switch_cpus: Raw Gem5 Running in Cycle:        34500000, Inst:        31230137
3272802051500: system.switch_cpus: Raw Gem5 Running in Cycle:        34600000, Inst:        31319105
3272852051500: system.switch_cpus: Raw Gem5 Running in Cycle:        34700000, Inst:        31409017
3272902051500: system.switch_cpus: Raw Gem5 Running in Cycle:        34800000, Inst:        31501414
3272952051500: system.switch_cpus: Raw Gem5 Running in Cycle:        34900000, Inst:        31592569
3273002051500: system.switch_cpus: Raw Gem5 Running in Cycle:        35000000, Inst:        31683664
3273052051500: system.switch_cpus: Raw Gem5 Running in Cycle:        35100000, Inst:        31774753
3273102051500: system.switch_cpus: Raw Gem5 Running in Cycle:        35200000, Inst:        31863752
3273152051500: system.switch_cpus: Raw Gem5 Running in Cycle:        35300000, Inst:        31955532
3273202051500: system.switch_cpus: Raw Gem5 Running in Cycle:        35400000, Inst:        32044658
3273252051500: system.switch_cpus: Raw Gem5 Running in Cycle:        35500000, Inst:        32133724
3273302051500: system.switch_cpus: Raw Gem5 Running in Cycle:        35600000, Inst:        32225575
3273352051500: system.switch_cpus: Raw Gem5 Running in Cycle:        35700000, Inst:        32315512
3273402051500: system.switch_cpus: Raw Gem5 Running in Cycle:        35800000, Inst:        32406722
3273452051500: system.switch_cpus: Raw Gem5 Running in Cycle:        35900000, Inst:        32497973
3273502051500: system.switch_cpus: Raw Gem5 Running in Cycle:        36000000, Inst:        32589028
3273552051500: system.switch_cpus: Raw Gem5 Running in Cycle:        36100000, Inst:        32678498
3273602051500: system.switch_cpus: Raw Gem5 Running in Cycle:        36200000, Inst:        32768255
3273652051500: system.switch_cpus: Raw Gem5 Running in Cycle:        36300000, Inst:        32859448
3273702051500: system.switch_cpus: Raw Gem5 Running in Cycle:        36400000, Inst:        32951684
3273752051500: system.switch_cpus: Raw Gem5 Running in Cycle:        36500000, Inst:        33041711
3273802051500: system.switch_cpus: Raw Gem5 Running in Cycle:        36600000, Inst:        33131440
3273852051500: system.switch_cpus: Raw Gem5 Running in Cycle:        36700000, Inst:        33222650
3273902051500: system.switch_cpus: Raw Gem5 Running in Cycle:        36800000, Inst:        33313840
3273952051500: system.switch_cpus: Raw Gem5 Running in Cycle:        36900000, Inst:        33403124
3274002051500: system.switch_cpus: Raw Gem5 Running in Cycle:        37000000, Inst:        33494330
3274052051500: system.switch_cpus: Raw Gem5 Running in Cycle:        37100000, Inst:        33584784
3274102051500: system.switch_cpus: Raw Gem5 Running in Cycle:        37200000, Inst:        33676747
3274152051500: system.switch_cpus: Raw Gem5 Running in Cycle:        37300000, Inst:        33767298
3274202051500: system.switch_cpus: Raw Gem5 Running in Cycle:        37400000, Inst:        33857085
3274252051500: system.switch_cpus: Raw Gem5 Running in Cycle:        37500000, Inst:        33947268
3274302051500: system.switch_cpus: Raw Gem5 Running in Cycle:        37600000, Inst:        34036394
3274352051500: system.switch_cpus: Raw Gem5 Running in Cycle:        37700000, Inst:        34125960
3274402051500: system.switch_cpus: Raw Gem5 Running in Cycle:        37800000, Inst:        34217586
3274452051500: system.switch_cpus: Raw Gem5 Running in Cycle:        37900000, Inst:        34308858
3274502051500: system.switch_cpus: Raw Gem5 Running in Cycle:        38000000, Inst:        34398285
3274552051500: system.switch_cpus: Raw Gem5 Running in Cycle:        38100000, Inst:        34489545
3274602051500: system.switch_cpus: Raw Gem5 Running in Cycle:        38200000, Inst:        34579202
3274652051500: system.switch_cpus: Raw Gem5 Running in Cycle:        38300000, Inst:        34670105
3274702051500: system.switch_cpus: Raw Gem5 Running in Cycle:        38400000, Inst:        34759685
3274752051500: system.switch_cpus: Raw Gem5 Running in Cycle:        38500000, Inst:        34849436
3274802051500: system.switch_cpus: Raw Gem5 Running in Cycle:        38600000, Inst:        34942097
3274852051500: system.switch_cpus: Raw Gem5 Running in Cycle:        38700000, Inst:        35033361
3274902051500: system.switch_cpus: Raw Gem5 Running in Cycle:        38800000, Inst:        35123495
3274952051500: system.switch_cpus: Raw Gem5 Running in Cycle:        38900000, Inst:        35214635
3275002051500: system.switch_cpus: Raw Gem5 Running in Cycle:        39000000, Inst:        35305145
3275052051500: system.switch_cpus: Raw Gem5 Running in Cycle:        39100000, Inst:        35392530
3275102051500: system.switch_cpus: Raw Gem5 Running in Cycle:        39200000, Inst:        35484365
3275152051500: system.switch_cpus: Raw Gem5 Running in Cycle:        39300000, Inst:        35576252
3275202051500: system.switch_cpus: Raw Gem5 Running in Cycle:        39400000, Inst:        35665211
3275252051500: system.switch_cpus: Raw Gem5 Running in Cycle:        39500000, Inst:        35756059
3275302051500: system.switch_cpus: Raw Gem5 Running in Cycle:        39600000, Inst:        35847386
3275352051500: system.switch_cpus: Raw Gem5 Running in Cycle:        39700000, Inst:        35936881
3275402051500: system.switch_cpus: Raw Gem5 Running in Cycle:        39800000, Inst:        36028097
3275452051500: system.switch_cpus: Raw Gem5 Running in Cycle:        39900000, Inst:        36116259
3275502051500: system.switch_cpus: Raw Gem5 Running in Cycle:        40000000, Inst:        36207665
3275552051500: system.switch_cpus: Raw Gem5 Running in Cycle:        40100000, Inst:        36300343
3275602051500: system.switch_cpus: Raw Gem5 Running in Cycle:        40200000, Inst:        36391343
3275652051500: system.switch_cpus: Raw Gem5 Running in Cycle:        40300000, Inst:        36482549
3275702051500: system.switch_cpus: Raw Gem5 Running in Cycle:        40400000, Inst:        36573605
3275752051500: system.switch_cpus: Raw Gem5 Running in Cycle:        40500000, Inst:        36663179
3275802051500: system.switch_cpus: Raw Gem5 Running in Cycle:        40600000, Inst:        36752768
3275852051500: system.switch_cpus: Raw Gem5 Running in Cycle:        40700000, Inst:        36845428
3275902051500: system.switch_cpus: Raw Gem5 Running in Cycle:        40800000, Inst:        36935229
3275952051500: system.switch_cpus: Raw Gem5 Running in Cycle:        40900000, Inst:        37026548
3276002051500: system.switch_cpus: Raw Gem5 Running in Cycle:        41000000, Inst:        37116452
3276052051500: system.switch_cpus: Raw Gem5 Running in Cycle:        41100000, Inst:        37207166
3276102051500: system.switch_cpus: Raw Gem5 Running in Cycle:        41200000, Inst:        37298321
3276152051500: system.switch_cpus: Raw Gem5 Running in Cycle:        41300000, Inst:        37387803
3276202051500: system.switch_cpus: Raw Gem5 Running in Cycle:        41400000, Inst:        37479125
3276252051500: system.switch_cpus: Raw Gem5 Running in Cycle:        41500000, Inst:        37570233
3276302051500: system.switch_cpus: Raw Gem5 Running in Cycle:        41600000, Inst:        37660541
3276352051500: system.switch_cpus: Raw Gem5 Running in Cycle:        41700000, Inst:        37751738
3276402051500: system.switch_cpus: Raw Gem5 Running in Cycle:        41800000, Inst:        37843551
3276452051500: system.switch_cpus: Raw Gem5 Running in Cycle:        41900000, Inst:        37933269
3276502051500: system.switch_cpus: Raw Gem5 Running in Cycle:        42000000, Inst:        38022542
3276552051500: system.switch_cpus: Raw Gem5 Running in Cycle:        42100000, Inst:        38114019
3276602051500: system.switch_cpus: Raw Gem5 Running in Cycle:        42200000, Inst:        38205315
3276652051500: system.switch_cpus: Raw Gem5 Running in Cycle:        42300000, Inst:        38296568
3276702051500: system.switch_cpus: Raw Gem5 Running in Cycle:        42400000, Inst:        38386199
3276752051500: system.switch_cpus: Raw Gem5 Running in Cycle:        42500000, Inst:        38478431
3276802051500: system.switch_cpus: Raw Gem5 Running in Cycle:        42600000, Inst:        38569171
3276852051500: system.switch_cpus: Raw Gem5 Running in Cycle:        42700000, Inst:        38657948
3276902051500: system.switch_cpus: Raw Gem5 Running in Cycle:        42800000, Inst:        38747951
3276952051500: system.switch_cpus: Raw Gem5 Running in Cycle:        42900000, Inst:        38838734
3277002051500: system.switch_cpus: Raw Gem5 Running in Cycle:        43000000, Inst:        38928416
3277052051500: system.switch_cpus: Raw Gem5 Running in Cycle:        43100000, Inst:        39021128
3277102051500: system.switch_cpus: Raw Gem5 Running in Cycle:        43200000, Inst:        39110669
3277152051500: system.switch_cpus: Raw Gem5 Running in Cycle:        43300000, Inst:        39201562
3277202051500: system.switch_cpus: Raw Gem5 Running in Cycle:        43400000, Inst:        39291297
3277252051500: system.switch_cpus: Raw Gem5 Running in Cycle:        43500000, Inst:        39380722
3277302051500: system.switch_cpus: Raw Gem5 Running in Cycle:        43600000, Inst:        39472242
3277352051500: system.switch_cpus: Raw Gem5 Running in Cycle:        43700000, Inst:        39564403
3277402051500: system.switch_cpus: Raw Gem5 Running in Cycle:        43800000, Inst:        39654491
3277452051500: system.switch_cpus: Raw Gem5 Running in Cycle:        43900000, Inst:        39745658
3277502051500: system.switch_cpus: Raw Gem5 Running in Cycle:        44000000, Inst:        39836913
3277552051500: system.switch_cpus: Raw Gem5 Running in Cycle:        44100000, Inst:        39927796
3277602051500: system.switch_cpus: Raw Gem5 Running in Cycle:        44200000, Inst:        40019013
3277652051500: system.switch_cpus: Raw Gem5 Running in Cycle:        44300000, Inst:        40108752
3277702051500: system.switch_cpus: Raw Gem5 Running in Cycle:        44400000, Inst:        40198295
3277752051500: system.switch_cpus: Raw Gem5 Running in Cycle:        44500000, Inst:        40290216
3277802051500: system.switch_cpus: Raw Gem5 Running in Cycle:        44600000, Inst:        40382220
3277852051500: system.switch_cpus: Raw Gem5 Running in Cycle:        44700000, Inst:        40471853
3277902051500: system.switch_cpus: Raw Gem5 Running in Cycle:        44800000, Inst:        40564034
3277952051500: system.switch_cpus: Raw Gem5 Running in Cycle:        44900000, Inst:        40652527
3278002051500: system.switch_cpus: Raw Gem5 Running in Cycle:        45000000, Inst:        40740843
3278052051500: system.switch_cpus: Raw Gem5 Running in Cycle:        45100000, Inst:        40832977
3278102051500: system.switch_cpus: Raw Gem5 Running in Cycle:        45200000, Inst:        40923162
3278152051500: system.switch_cpus: Raw Gem5 Running in Cycle:        45300000, Inst:        41012707
3278202051500: system.switch_cpus: Raw Gem5 Running in Cycle:        45400000, Inst:        41103862
3278252051500: system.switch_cpus: Raw Gem5 Running in Cycle:        45500000, Inst:        41193480
3278302051500: system.switch_cpus: Raw Gem5 Running in Cycle:        45600000, Inst:        41284648
3278352051500: system.switch_cpus: Raw Gem5 Running in Cycle:        45700000, Inst:        41375653
3278402051500: system.switch_cpus: Raw Gem5 Running in Cycle:        45800000, Inst:        41465470
3278452051500: system.switch_cpus: Raw Gem5 Running in Cycle:        45900000, Inst:        41556920
3278502051500: system.switch_cpus: Raw Gem5 Running in Cycle:        46000000, Inst:        41649318
3278552051500: system.switch_cpus: Raw Gem5 Running in Cycle:        46100000, Inst:        41740404
3278602051500: system.switch_cpus: Raw Gem5 Running in Cycle:        46200000, Inst:        41831619
3278652051500: system.switch_cpus: Raw Gem5 Running in Cycle:        46300000, Inst:        41921296
3278702051500: system.switch_cpus: Raw Gem5 Running in Cycle:        46400000, Inst:        42010872
3278752051500: system.switch_cpus: Raw Gem5 Running in Cycle:        46500000, Inst:        42100474
3278802051500: system.switch_cpus: Raw Gem5 Running in Cycle:        46600000, Inst:        42192037
3278852051500: system.switch_cpus: Raw Gem5 Running in Cycle:        46700000, Inst:        42282732
3278902051500: system.switch_cpus: Raw Gem5 Running in Cycle:        46800000, Inst:        42372533
3278952051500: system.switch_cpus: Raw Gem5 Running in Cycle:        46900000, Inst:        42461947
3279002051500: system.switch_cpus: Raw Gem5 Running in Cycle:        47000000, Inst:        42552996
3279052051500: system.switch_cpus: Raw Gem5 Running in Cycle:        47100000, Inst:        42644140
3279102051500: system.switch_cpus: Raw Gem5 Running in Cycle:        47200000, Inst:        42732147
3279152051500: system.switch_cpus: Raw Gem5 Running in Cycle:        47300000, Inst:        42823318
3279202051500: system.switch_cpus: Raw Gem5 Running in Cycle:        47400000, Inst:        42914612
3279252051500: system.switch_cpus: Raw Gem5 Running in Cycle:        47500000, Inst:        43005708
3279302051500: system.switch_cpus: Raw Gem5 Running in Cycle:        47600000, Inst:        43098438
3279352051500: system.switch_cpus: Raw Gem5 Running in Cycle:        47700000, Inst:        43188129
3279402051500: system.switch_cpus: Raw Gem5 Running in Cycle:        47800000, Inst:        43279348
3279452051500: system.switch_cpus: Raw Gem5 Running in Cycle:        47900000, Inst:        43368804
3279502051500: system.switch_cpus: Raw Gem5 Running in Cycle:        48000000, Inst:        43458435
3279552051500: system.switch_cpus: Raw Gem5 Running in Cycle:        48100000, Inst:        43549600
3279602051500: system.switch_cpus: Raw Gem5 Running in Cycle:        48200000, Inst:        43640757
3279652051500: system.switch_cpus: Raw Gem5 Running in Cycle:        48300000, Inst:        43730290
3279702051500: system.switch_cpus: Raw Gem5 Running in Cycle:        48400000, Inst:        43821505
3279752051500: system.switch_cpus: Raw Gem5 Running in Cycle:        48500000, Inst:        43912047
3279802051500: system.switch_cpus: Raw Gem5 Running in Cycle:        48600000, Inst:        44001921
3279852051500: system.switch_cpus: Raw Gem5 Running in Cycle:        48700000, Inst:        44091596
3279902051500: system.switch_cpus: Raw Gem5 Running in Cycle:        48800000, Inst:        44181390
3279952051500: system.switch_cpus: Raw Gem5 Running in Cycle:        48900000, Inst:        44272587
3280002051500: system.switch_cpus: Raw Gem5 Running in Cycle:        49000000, Inst:        44365317
3280052051500: system.switch_cpus: Raw Gem5 Running in Cycle:        49100000, Inst:        44454868
3280102051500: system.switch_cpus: Raw Gem5 Running in Cycle:        49200000, Inst:        44546103
3280152051500: system.switch_cpus: Raw Gem5 Running in Cycle:        49300000, Inst:        44637095
3280202051500: system.switch_cpus: Raw Gem5 Running in Cycle:        49400000, Inst:        44725062
3280252051500: system.switch_cpus: Raw Gem5 Running in Cycle:        49500000, Inst:        44816421
3280302051500: system.switch_cpus: Raw Gem5 Running in Cycle:        49600000, Inst:        44909100
3280352051500: system.switch_cpus: Raw Gem5 Running in Cycle:        49700000, Inst:        44998855
3280402051500: system.switch_cpus: Raw Gem5 Running in Cycle:        49800000, Inst:        45089997
3280452051500: system.switch_cpus: Raw Gem5 Running in Cycle:        49900000, Inst:        45181254
3280502051500: system.switch_cpus: Raw Gem5 Running in Cycle:        50000000, Inst:        45270792
3280552051500: system.switch_cpus: Raw Gem5 Running in Cycle:        50100000, Inst:        45361827
3280602051500: system.switch_cpus: Raw Gem5 Running in Cycle:        50200000, Inst:        45452041
3280652051500: system.switch_cpus: Raw Gem5 Running in Cycle:        50300000, Inst:        45542616
3280702051500: system.switch_cpus: Raw Gem5 Running in Cycle:        50400000, Inst:        45633870
3280752051500: system.switch_cpus: Raw Gem5 Running in Cycle:        50500000, Inst:        45724050
3280802051500: system.switch_cpus: Raw Gem5 Running in Cycle:        50600000, Inst:        45815718
3280852051500: system.switch_cpus: Raw Gem5 Running in Cycle:        50700000, Inst:        45907027
3280902051500: system.switch_cpus: Raw Gem5 Running in Cycle:        50800000, Inst:        45995253
3280952051500: system.switch_cpus: Raw Gem5 Running in Cycle:        50900000, Inst:        46084893
3281002051500: system.switch_cpus: Raw Gem5 Running in Cycle:        51000000, Inst:        46177403
3281052051500: system.switch_cpus: Raw Gem5 Running in Cycle:        51100000, Inst:        46268586
3281102051500: system.switch_cpus: Raw Gem5 Running in Cycle:        51200000, Inst:        46358680
3281152051500: system.switch_cpus: Raw Gem5 Running in Cycle:        51300000, Inst:        46449721
3281202051500: system.switch_cpus: Raw Gem5 Running in Cycle:        51400000, Inst:        46540700
3281252051500: system.switch_cpus: Raw Gem5 Running in Cycle:        51500000, Inst:        46631264
3281302051500: system.switch_cpus: Raw Gem5 Running in Cycle:        51600000, Inst:        46721234
3281352051500: system.switch_cpus: Raw Gem5 Running in Cycle:        51700000, Inst:        46809517
3281402051500: system.switch_cpus: Raw Gem5 Running in Cycle:        51800000, Inst:        46902340
3281452051500: system.switch_cpus: Raw Gem5 Running in Cycle:        51900000, Inst:        46993546
3281502051500: system.switch_cpus: Raw Gem5 Running in Cycle:        52000000, Inst:        47084599
3281552051500: system.switch_cpus: Raw Gem5 Running in Cycle:        52100000, Inst:        47175792
3281602051500: system.switch_cpus: Raw Gem5 Running in Cycle:        52200000, Inst:        47263988
3281652051500: system.switch_cpus: Raw Gem5 Running in Cycle:        52300000, Inst:        47354802
3281702051500: system.switch_cpus: Raw Gem5 Running in Cycle:        52400000, Inst:        47444488
3281752051500: system.switch_cpus: Raw Gem5 Running in Cycle:        52500000, Inst:        47535425
3281802051500: system.switch_cpus: Raw Gem5 Running in Cycle:        52600000, Inst:        47626700
3281852051500: system.switch_cpus: Raw Gem5 Running in Cycle:        52700000, Inst:        47718251
3281902051500: system.switch_cpus: Raw Gem5 Running in Cycle:        52800000, Inst:        47808491
3281952051500: system.switch_cpus: Raw Gem5 Running in Cycle:        52900000, Inst:        47898866
3282002051500: system.switch_cpus: Raw Gem5 Running in Cycle:        53000000, Inst:        47990009
3282052051500: system.switch_cpus: Raw Gem5 Running in Cycle:        53100000, Inst:        48079699
3282102051500: system.switch_cpus: Raw Gem5 Running in Cycle:        53200000, Inst:        48171475
3282152051500: system.switch_cpus: Raw Gem5 Running in Cycle:        53300000, Inst:        48262093
3282202051500: system.switch_cpus: Raw Gem5 Running in Cycle:        53400000, Inst:        48353308
3282252051500: system.switch_cpus: Raw Gem5 Running in Cycle:        53500000, Inst:        48444454
3282302051500: system.switch_cpus: Raw Gem5 Running in Cycle:        53600000, Inst:        48535162
3282352051500: system.switch_cpus: Raw Gem5 Running in Cycle:        53700000, Inst:        48625103
3282402051500: system.switch_cpus: Raw Gem5 Running in Cycle:        53800000, Inst:        48714567
3282452051500: system.switch_cpus: Raw Gem5 Running in Cycle:        53900000, Inst:        48803268
3282502051500: system.switch_cpus: Raw Gem5 Running in Cycle:        54000000, Inst:        48895465
3282552051500: system.switch_cpus: Raw Gem5 Running in Cycle:        54100000, Inst:        48985109
3282602051500: system.switch_cpus: Raw Gem5 Running in Cycle:        54200000, Inst:        49074667
3282652051500: system.switch_cpus: Raw Gem5 Running in Cycle:        54300000, Inst:        49165774
3282702051500: system.switch_cpus: Raw Gem5 Running in Cycle:        54400000, Inst:        49255321
3282752051500: system.switch_cpus: Raw Gem5 Running in Cycle:        54500000, Inst:        49346253
3282802051500: system.switch_cpus: Raw Gem5 Running in Cycle:        54600000, Inst:        49436380
3282852051500: system.switch_cpus: Raw Gem5 Running in Cycle:        54700000, Inst:        49527030
3282902051500: system.switch_cpus: Raw Gem5 Running in Cycle:        54800000, Inst:        49618501
3282952051500: system.switch_cpus: Raw Gem5 Running in Cycle:        54900000, Inst:        49711017
3283002051500: system.switch_cpus: Raw Gem5 Running in Cycle:        55000000, Inst:        49800070
3283052051500: system.switch_cpus: Raw Gem5 Running in Cycle:        55100000, Inst:        49891276
3283102051500: system.switch_cpus: Raw Gem5 Running in Cycle:        55200000, Inst:        49981507
3283152051500: system.switch_cpus: Raw Gem5 Running in Cycle:        55300000, Inst:        50069414
3283202051500: system.switch_cpus: Raw Gem5 Running in Cycle:        55400000, Inst:        50160760
3283252051500: system.switch_cpus: Raw Gem5 Running in Cycle:        55500000, Inst:        50253315
3283302051500: system.switch_cpus: Raw Gem5 Running in Cycle:        55600000, Inst:        50342361
3283352051500: system.switch_cpus: Raw Gem5 Running in Cycle:        55700000, Inst:        50432602
3283402051500: system.switch_cpus: Raw Gem5 Running in Cycle:        55800000, Inst:        50522204
3283452051500: system.switch_cpus: Raw Gem5 Running in Cycle:        55900000, Inst:        50614861
3283502051500: system.switch_cpus: Raw Gem5 Running in Cycle:        56000000, Inst:        50704552
3283552051500: system.switch_cpus: Raw Gem5 Running in Cycle:        56100000, Inst:        50793770
3283602051500: system.switch_cpus: Raw Gem5 Running in Cycle:        56200000, Inst:        50883764
3283652051500: system.switch_cpus: Raw Gem5 Running in Cycle:        56300000, Inst:        50976283
3283702051500: system.switch_cpus: Raw Gem5 Running in Cycle:        56400000, Inst:        51067600
3283752051500: system.switch_cpus: Raw Gem5 Running in Cycle:        56500000, Inst:        51158806
3283802051500: system.switch_cpus: Raw Gem5 Running in Cycle:        56600000, Inst:        51250063
3283852051500: system.switch_cpus: Raw Gem5 Running in Cycle:        56700000, Inst:        51339592
3283902051500: system.switch_cpus: Raw Gem5 Running in Cycle:        56800000, Inst:        51430751
3283952051500: system.switch_cpus: Raw Gem5 Running in Cycle:        56900000, Inst:        51522340
3284002051500: system.switch_cpus: Raw Gem5 Running in Cycle:        57000000, Inst:        51613259
3284052051500: system.switch_cpus: Raw Gem5 Running in Cycle:        57100000, Inst:        51704602
3284102051500: system.switch_cpus: Raw Gem5 Running in Cycle:        57200000, Inst:        51793862
3284152051500: system.switch_cpus: Raw Gem5 Running in Cycle:        57300000, Inst:        51884992
3284202051500: system.switch_cpus: Raw Gem5 Running in Cycle:        57400000, Inst:        51975556
3284252051500: system.switch_cpus: Raw Gem5 Running in Cycle:        57500000, Inst:        52064072
3284302051500: system.switch_cpus: Raw Gem5 Running in Cycle:        57600000, Inst:        52155460
3284352051500: system.switch_cpus: Raw Gem5 Running in Cycle:        57700000, Inst:        52247646
3284402051500: system.switch_cpus: Raw Gem5 Running in Cycle:        57800000, Inst:        52337678
3284452051500: system.switch_cpus: Raw Gem5 Running in Cycle:        57900000, Inst:        52428723
3284502051500: system.switch_cpus: Raw Gem5 Running in Cycle:        58000000, Inst:        52520045
3284552051500: system.switch_cpus: Raw Gem5 Running in Cycle:        58100000, Inst:        52608964
3284602051500: system.switch_cpus: Raw Gem5 Running in Cycle:        58200000, Inst:        52697686
3284652051500: system.switch_cpus: Raw Gem5 Running in Cycle:        58300000, Inst:        52788899
3284702051500: system.switch_cpus: Raw Gem5 Running in Cycle:        58400000, Inst:        52881284
3284752051500: system.switch_cpus: Raw Gem5 Running in Cycle:        58500000, Inst:        52972762
3284802051500: system.switch_cpus: Raw Gem5 Running in Cycle:        58600000, Inst:        53062202
3284852051500: system.switch_cpus: Raw Gem5 Running in Cycle:        58700000, Inst:        53153503
3284902051500: system.switch_cpus: Raw Gem5 Running in Cycle:        58800000, Inst:        53243000
3284952051500: system.switch_cpus: Raw Gem5 Running in Cycle:        58900000, Inst:        53334031
3285002051500: system.switch_cpus: Raw Gem5 Running in Cycle:        59000000, Inst:        53423770
3285052051500: system.switch_cpus: Raw Gem5 Running in Cycle:        59100000, Inst:        53514823
3285102051500: system.switch_cpus: Raw Gem5 Running in Cycle:        59200000, Inst:        53604517
3285152051500: system.switch_cpus: Raw Gem5 Running in Cycle:        59300000, Inst:        53697229
3285202051500: system.switch_cpus: Raw Gem5 Running in Cycle:        59400000, Inst:        53787927
3285252051500: system.switch_cpus: Raw Gem5 Running in Cycle:        59500000, Inst:        53878139
3285302051500: system.switch_cpus: Raw Gem5 Running in Cycle:        59600000, Inst:        53968630
3285352051500: system.switch_cpus: Raw Gem5 Running in Cycle:        59700000, Inst:        54057123
3285402051500: system.switch_cpus: Raw Gem5 Running in Cycle:        59800000, Inst:        54146614
3285452051500: system.switch_cpus: Raw Gem5 Running in Cycle:        59900000, Inst:        54239395
3285502051500: system.switch_cpus: Raw Gem5 Running in Cycle:        60000000, Inst:        54328936
3285552051500: system.switch_cpus: Raw Gem5 Running in Cycle:        60100000, Inst:        54420232
3285602051500: system.switch_cpus: Raw Gem5 Running in Cycle:        60200000, Inst:        54511595
3285652051500: system.switch_cpus: Raw Gem5 Running in Cycle:        60300000, Inst:        54601217
3285702051500: system.switch_cpus: Raw Gem5 Running in Cycle:        60400000, Inst:        54691570
3285752051500: system.switch_cpus: Raw Gem5 Running in Cycle:        60500000, Inst:        54781811
3285802051500: system.switch_cpus: Raw Gem5 Running in Cycle:        60600000, Inst:        54871506
3285852051500: system.switch_cpus: Raw Gem5 Running in Cycle:        60700000, Inst:        54962750
3285902051500: system.switch_cpus: Raw Gem5 Running in Cycle:        60800000, Inst:        55053965
3285952051500: system.switch_cpus: Raw Gem5 Running in Cycle:        60900000, Inst:        55143834
3286002051500: system.switch_cpus: Raw Gem5 Running in Cycle:        61000000, Inst:        55234589
3286052051500: system.switch_cpus: Raw Gem5 Running in Cycle:        61100000, Inst:        55324233
3286102051500: system.switch_cpus: Raw Gem5 Running in Cycle:        61200000, Inst:        55412073
3286152051500: system.switch_cpus: Raw Gem5 Running in Cycle:        61300000, Inst:        55504770
3286202051500: system.switch_cpus: Raw Gem5 Running in Cycle:        61400000, Inst:        55595705
3286252051500: system.switch_cpus: Raw Gem5 Running in Cycle:        61500000, Inst:        55684306
3286302051500: system.switch_cpus: Raw Gem5 Running in Cycle:        61600000, Inst:        55775200
3286352051500: system.switch_cpus: Raw Gem5 Running in Cycle:        61700000, Inst:        55864751
3286402051500: system.switch_cpus: Raw Gem5 Running in Cycle:        61800000, Inst:        55955799
3286452051500: system.switch_cpus: Raw Gem5 Running in Cycle:        61900000, Inst:        56045387
3286502051500: system.switch_cpus: Raw Gem5 Running in Cycle:        62000000, Inst:        56134983
3286552051500: system.switch_cpus: Raw Gem5 Running in Cycle:        62100000, Inst:        56226279
3286602051500: system.switch_cpus: Raw Gem5 Running in Cycle:        62200000, Inst:        56317963
3286652051500: system.switch_cpus: Raw Gem5 Running in Cycle:        62300000, Inst:        56408738
3286702051500: system.switch_cpus: Raw Gem5 Running in Cycle:        62400000, Inst:        56499807
3286752051500: system.switch_cpus: Raw Gem5 Running in Cycle:        62500000, Inst:        56591026
3286802051500: system.switch_cpus: Raw Gem5 Running in Cycle:        62600000, Inst:        56679533
3286852051500: system.switch_cpus: Raw Gem5 Running in Cycle:        62700000, Inst:        56770049
3286902051500: system.switch_cpus: Raw Gem5 Running in Cycle:        62800000, Inst:        56860613
3286952051500: system.switch_cpus: Raw Gem5 Running in Cycle:        62900000, Inst:        56950899
3287002051500: system.switch_cpus: Raw Gem5 Running in Cycle:        63000000, Inst:        57041702
3287052051500: system.switch_cpus: Raw Gem5 Running in Cycle:        63100000, Inst:        57130439
3287102051500: system.switch_cpus: Raw Gem5 Running in Cycle:        63200000, Inst:        57221073
3287152051500: system.switch_cpus: Raw Gem5 Running in Cycle:        63300000, Inst:        57312219
3287202051500: system.switch_cpus: Raw Gem5 Running in Cycle:        63400000, Inst:        57400262
3287252051500: system.switch_cpus: Raw Gem5 Running in Cycle:        63500000, Inst:        57491490
3287302051500: system.switch_cpus: Raw Gem5 Running in Cycle:        63600000, Inst:        57583310
3287352051500: system.switch_cpus: Raw Gem5 Running in Cycle:        63700000, Inst:        57675417
3287402051500: system.switch_cpus: Raw Gem5 Running in Cycle:        63800000, Inst:        57765274
3287452051500: system.switch_cpus: Raw Gem5 Running in Cycle:        63900000, Inst:        57857829
3287502051500: system.switch_cpus: Raw Gem5 Running in Cycle:        64000000, Inst:        57947307
3287552051500: system.switch_cpus: Raw Gem5 Running in Cycle:        64100000, Inst:        58036826
3287602051500: system.switch_cpus: Raw Gem5 Running in Cycle:        64200000, Inst:        58126569
3287652051500: system.switch_cpus: Raw Gem5 Running in Cycle:        64300000, Inst:        58218068
3287702051500: system.switch_cpus: Raw Gem5 Running in Cycle:        64400000, Inst:        58310457
3287752051500: system.switch_cpus: Raw Gem5 Running in Cycle:        64500000, Inst:        58400313
3287802051500: system.switch_cpus: Raw Gem5 Running in Cycle:        64600000, Inst:        58492597
3287852051500: system.switch_cpus: Raw Gem5 Running in Cycle:        64700000, Inst:        58582577
3287902051500: system.switch_cpus: Raw Gem5 Running in Cycle:        64800000, Inst:        58672607
3287952051500: system.switch_cpus: Raw Gem5 Running in Cycle:        64900000, Inst:        58762519
3288002051500: system.switch_cpus: Raw Gem5 Running in Cycle:        65000000, Inst:        58854285
3288052051500: system.switch_cpus: Raw Gem5 Running in Cycle:        65100000, Inst:        58943960
3288102051500: system.switch_cpus: Raw Gem5 Running in Cycle:        65200000, Inst:        59036099
3288152051500: system.switch_cpus: Raw Gem5 Running in Cycle:        65300000, Inst:        59126222
3288202051500: system.switch_cpus: Raw Gem5 Running in Cycle:        65400000, Inst:        59217029
3288252051500: system.switch_cpus: Raw Gem5 Running in Cycle:        65500000, Inst:        59307056
3288302051500: system.switch_cpus: Raw Gem5 Running in Cycle:        65600000, Inst:        59395354
3288352051500: system.switch_cpus: Raw Gem5 Running in Cycle:        65700000, Inst:        59487611
3288402051500: system.switch_cpus: Raw Gem5 Running in Cycle:        65800000, Inst:        59578971
3288452051500: system.switch_cpus: Raw Gem5 Running in Cycle:        65900000, Inst:        59669407
3288502051500: system.switch_cpus: Raw Gem5 Running in Cycle:        66000000, Inst:        59759603
3288552051500: system.switch_cpus: Raw Gem5 Running in Cycle:        66100000, Inst:        59852238
3288602051500: system.switch_cpus: Raw Gem5 Running in Cycle:        66200000, Inst:        59941822
3288652051500: system.switch_cpus: Raw Gem5 Running in Cycle:        66300000, Inst:        60033203
3288702051500: system.switch_cpus: Raw Gem5 Running in Cycle:        66400000, Inst:        60124358
3288752051500: system.switch_cpus: Raw Gem5 Running in Cycle:        66500000, Inst:        60214046
3288802051500: system.switch_cpus: Raw Gem5 Running in Cycle:        66600000, Inst:        60306774
3288852051500: system.switch_cpus: Raw Gem5 Running in Cycle:        66700000, Inst:        60396200
3288902051500: system.switch_cpus: Raw Gem5 Running in Cycle:        66800000, Inst:        60486612
3288952051500: system.switch_cpus: Raw Gem5 Running in Cycle:        66900000, Inst:        60577136
3289002051500: system.switch_cpus: Raw Gem5 Running in Cycle:        67000000, Inst:        60666579
3289052051500: system.switch_cpus: Raw Gem5 Running in Cycle:        67100000, Inst:        60756203
3289102051500: system.switch_cpus: Raw Gem5 Running in Cycle:        67200000, Inst:        60848111
3289152051500: system.switch_cpus: Raw Gem5 Running in Cycle:        67300000, Inst:        60938631
3289202051500: system.switch_cpus: Raw Gem5 Running in Cycle:        67400000, Inst:        61028376
3289252051500: system.switch_cpus: Raw Gem5 Running in Cycle:        67500000, Inst:        61120247
3289302051500: system.switch_cpus: Raw Gem5 Running in Cycle:        67600000, Inst:        61210103
3289352051500: system.switch_cpus: Raw Gem5 Running in Cycle:        67700000, Inst:        61299928
3289402051500: system.switch_cpus: Raw Gem5 Running in Cycle:        67800000, Inst:        61389870
3289452051500: system.switch_cpus: Raw Gem5 Running in Cycle:        67900000, Inst:        61479456
3289502051500: system.switch_cpus: Raw Gem5 Running in Cycle:        68000000, Inst:        61572138
3289552051500: system.switch_cpus: Raw Gem5 Running in Cycle:        68100000, Inst:        61661712
3289602051500: system.switch_cpus: Raw Gem5 Running in Cycle:        68200000, Inst:        61752931
3289652051500: system.switch_cpus: Raw Gem5 Running in Cycle:        68300000, Inst:        61844128
3289702051500: system.switch_cpus: Raw Gem5 Running in Cycle:        68400000, Inst:        61934073
3289752051500: system.switch_cpus: Raw Gem5 Running in Cycle:        68500000, Inst:        62023302
3289802051500: system.switch_cpus: Raw Gem5 Running in Cycle:        68600000, Inst:        62114490
3289852051500: system.switch_cpus: Raw Gem5 Running in Cycle:        68700000, Inst:        62205663
3289902051500: system.switch_cpus: Raw Gem5 Running in Cycle:        68800000, Inst:        62296608
3289952051500: system.switch_cpus: Raw Gem5 Running in Cycle:        68900000, Inst:        62386342
3290002051500: system.switch_cpus: Raw Gem5 Running in Cycle:        69000000, Inst:        62476500
3290052051500: system.switch_cpus: Raw Gem5 Running in Cycle:        69100000, Inst:        62567085
3290102051500: system.switch_cpus: Raw Gem5 Running in Cycle:        69200000, Inst:        62658226
3290152051500: system.switch_cpus: Raw Gem5 Running in Cycle:        69300000, Inst:        62746284
3290202051500: system.switch_cpus: Raw Gem5 Running in Cycle:        69400000, Inst:        62837825
3290252051500: system.switch_cpus: Raw Gem5 Running in Cycle:        69500000, Inst:        62928460
3290302051500: system.switch_cpus: Raw Gem5 Running in Cycle:        69600000, Inst:        63021189
3290352051500: system.switch_cpus: Raw Gem5 Running in Cycle:        69700000, Inst:        63112128
3290402051500: system.switch_cpus: Raw Gem5 Running in Cycle:        69800000, Inst:        63203279
3290452051500: system.switch_cpus: Raw Gem5 Running in Cycle:        69900000, Inst:        63293386
3290502051500: system.switch_cpus: Raw Gem5 Running in Cycle:        70000000, Inst:        63382804
3290552051500: system.switch_cpus: Raw Gem5 Running in Cycle:        70100000, Inst:        63473611
3290602051500: system.switch_cpus: Raw Gem5 Running in Cycle:        70200000, Inst:        63565215
3290652051500: system.switch_cpus: Raw Gem5 Running in Cycle:        70300000, Inst:        63656281
3290702051500: system.switch_cpus: Raw Gem5 Running in Cycle:        70400000, Inst:        63745890
3290752051500: system.switch_cpus: Raw Gem5 Running in Cycle:        70500000, Inst:        63837321
3290802051500: system.switch_cpus: Raw Gem5 Running in Cycle:        70600000, Inst:        63928408
3290852051500: system.switch_cpus: Raw Gem5 Running in Cycle:        70700000, Inst:        64017993
3290902051500: system.switch_cpus: Raw Gem5 Running in Cycle:        70800000, Inst:        64109050
3290952051500: system.switch_cpus: Raw Gem5 Running in Cycle:        70900000, Inst:        64198480
3291002051500: system.switch_cpus: Raw Gem5 Running in Cycle:        71000000, Inst:        64291077
3291052051500: system.switch_cpus: Raw Gem5 Running in Cycle:        71100000, Inst:        64382200
3291102051500: system.switch_cpus: Raw Gem5 Running in Cycle:        71200000, Inst:        64472110
3291152051500: system.switch_cpus: Raw Gem5 Running in Cycle:        71300000, Inst:        64563406
3291202051500: system.switch_cpus: Raw Gem5 Running in Cycle:        71400000, Inst:        64653327
3291252051500: system.switch_cpus: Raw Gem5 Running in Cycle:        71500000, Inst:        64742458
3291302051500: system.switch_cpus: Raw Gem5 Running in Cycle:        71600000, Inst:        64834673
3291352051500: system.switch_cpus: Raw Gem5 Running in Cycle:        71700000, Inst:        64926786
3291402051500: system.switch_cpus: Raw Gem5 Running in Cycle:        71800000, Inst:        65016021
3291452051500: system.switch_cpus: Raw Gem5 Running in Cycle:        71900000, Inst:        65107008
3291502051500: system.switch_cpus: Raw Gem5 Running in Cycle:        72000000, Inst:        65196816
3291552051500: system.switch_cpus: Raw Gem5 Running in Cycle:        72100000, Inst:        65286451
3291602051500: system.switch_cpus: Raw Gem5 Running in Cycle:        72200000, Inst:        65377439
3291652051500: system.switch_cpus: Raw Gem5 Running in Cycle:        72300000, Inst:        65465712
3291702051500: system.switch_cpus: Raw Gem5 Running in Cycle:        72400000, Inst:        65556761
3291752051500: system.switch_cpus: Raw Gem5 Running in Cycle:        72500000, Inst:        65649289
3291802051500: system.switch_cpus: Raw Gem5 Running in Cycle:        72600000, Inst:        65738022
3291852051500: system.switch_cpus: Raw Gem5 Running in Cycle:        72700000, Inst:        65828601
3291902051500: system.switch_cpus: Raw Gem5 Running in Cycle:        72800000, Inst:        65919699
3291952051500: system.switch_cpus: Raw Gem5 Running in Cycle:        72900000, Inst:        66008109
3292002051500: system.switch_cpus: Raw Gem5 Running in Cycle:        73000000, Inst:        66098709
3292052051500: system.switch_cpus: Raw Gem5 Running in Cycle:        73100000, Inst:        66190371
3292102051500: system.switch_cpus: Raw Gem5 Running in Cycle:        73200000, Inst:        66281232
3292152051500: system.switch_cpus: Raw Gem5 Running in Cycle:        73300000, Inst:        66371420
3292202051500: system.switch_cpus: Raw Gem5 Running in Cycle:        73400000, Inst:        66462648
3292252051500: system.switch_cpus: Raw Gem5 Running in Cycle:        73500000, Inst:        66553120
3292302051500: system.switch_cpus: Raw Gem5 Running in Cycle:        73600000, Inst:        66643728
3292352051500: system.switch_cpus: Raw Gem5 Running in Cycle:        73700000, Inst:        66732511
3292402051500: system.switch_cpus: Raw Gem5 Running in Cycle:        73800000, Inst:        66823386
3292452051500: system.switch_cpus: Raw Gem5 Running in Cycle:        73900000, Inst:        66915873
3292502051500: system.switch_cpus: Raw Gem5 Running in Cycle:        74000000, Inst:        67005689
3292552051500: system.switch_cpus: Raw Gem5 Running in Cycle:        74100000, Inst:        67096895
3292602051500: system.switch_cpus: Raw Gem5 Running in Cycle:        74200000, Inst:        67188262
3292652051500: system.switch_cpus: Raw Gem5 Running in Cycle:        74300000, Inst:        67277751
3292702051500: system.switch_cpus: Raw Gem5 Running in Cycle:        74400000, Inst:        67367163
3292752051500: system.switch_cpus: Raw Gem5 Running in Cycle:        74500000, Inst:        67456987
3292802051500: system.switch_cpus: Raw Gem5 Running in Cycle:        74600000, Inst:        67547949
3292852051500: system.switch_cpus: Raw Gem5 Running in Cycle:        74700000, Inst:        67637688
3292902051500: system.switch_cpus: Raw Gem5 Running in Cycle:        74800000, Inst:        67728735
3292952051500: system.switch_cpus: Raw Gem5 Running in Cycle:        74900000, Inst:        67820043
3293002051500: system.switch_cpus: Raw Gem5 Running in Cycle:        75000000, Inst:        67909818
3293052051500: system.switch_cpus: Raw Gem5 Running in Cycle:        75100000, Inst:        68000414
3293102051500: system.switch_cpus: Raw Gem5 Running in Cycle:        75200000, Inst:        68090164
3293152051500: system.switch_cpus: Raw Gem5 Running in Cycle:        75300000, Inst:        68181423
3293202051500: system.switch_cpus: Raw Gem5 Running in Cycle:        75400000, Inst:        68272135
3293252051500: system.switch_cpus: Raw Gem5 Running in Cycle:        75500000, Inst:        68363939
3293302051500: system.switch_cpus: Raw Gem5 Running in Cycle:        75600000, Inst:        68453803
3293352051500: system.switch_cpus: Raw Gem5 Running in Cycle:        75700000, Inst:        68544623
3293402051500: system.switch_cpus: Raw Gem5 Running in Cycle:        75800000, Inst:        68635477
3293452051500: system.switch_cpus: Raw Gem5 Running in Cycle:        75900000, Inst:        68723728
[...]
3300952051500: system.switch_cpus: Raw Gem5 Running in Cycle:        90900000, Inst:        82299162
3301002051500: system.switch_cpus: Raw Gem5 Running in Cycle:        91000000, Inst:        82388946
3301052051500: system.switch_cpus: Raw Gem5 Running in Cycle:        91100000, Inst:        82478530
3301102051500: system.switch_cpus: Raw Gem5 Running in Cycle:        91200000, Inst:        82569570
3301152051500: system.switch_cpus: Raw Gem5 Running in Cycle:        91300000, Inst:        82660789
3301202051500: system.switch_cpus: Raw Gem5 Running in Cycle:        91400000, Inst:        82750378
3301252051500: system.switch_cpus: Raw Gem5 Running in Cycle:        91500000, Inst:        82841399
3301302051500: system.switch_cpus: Raw Gem5 Running in Cycle:        91600000, Inst:        82932631
3301352051500: system.switch_cpus: Raw Gem5 Running in Cycle:        91700000, Inst:        83023932
3301402051500: system.switch_cpus: Raw Gem5 Running in Cycle:        91800000, Inst:        83115138
3301452051500: system.switch_cpus: Raw Gem5 Running in Cycle:        91900000, Inst:        83206240
3301502051500: system.switch_cpus: Raw Gem5 Running in Cycle:        92000000, Inst:        83297188
3301552051500: system.switch_cpus: Raw Gem5 Running in Cycle:        92100000, Inst:        83385498
3301602051500: system.switch_cpus: Raw Gem5 Running in Cycle:        92200000, Inst:        83475717
3301652051500: system.switch_cpus: Raw Gem5 Running in Cycle:        92300000, Inst:        83566782
3301702051500: system.switch_cpus: Raw Gem5 Running in Cycle:        92400000, Inst:        83657979
3301752051500: system.switch_cpus: Raw Gem5 Running in Cycle:        92500000, Inst:        83746929
3301802051500: system.switch_cpus: Raw Gem5 Running in Cycle:        92600000, Inst:        83838684
3301852051500: system.switch_cpus: Raw Gem5 Running in Cycle:        92700000, Inst:        83930257
3301902051500: system.switch_cpus: Raw Gem5 Running in Cycle:        92800000, Inst:        84018772
3301952051500: system.switch_cpus: Raw Gem5 Running in Cycle:        92900000, Inst:        84108680
3302002051500: system.switch_cpus: Raw Gem5 Running in Cycle:        93000000, Inst:        84198986
3302052051500: system.switch_cpus: Raw Gem5 Running in Cycle:        93100000, Inst:        84289467
3302102051500: system.switch_cpus: Raw Gem5 Running in Cycle:        93200000, Inst:        84381880
3302152051500: system.switch_cpus: Raw Gem5 Running in Cycle:        93300000, Inst:        84471604
3302202051500: system.switch_cpus: Raw Gem5 Running in Cycle:        93400000, Inst:        84564121
3302252051500: system.switch_cpus: Raw Gem5 Running in Cycle:        93500000, Inst:        84653910
3302302051500: system.switch_cpus: Raw Gem5 Running in Cycle:        93600000, Inst:        84741957
3302352051500: system.switch_cpus: Raw Gem5 Running in Cycle:        93700000, Inst:        84834547
3302402051500: system.switch_cpus: Raw Gem5 Running in Cycle:        93800000, Inst:        84927331
3302452051500: system.switch_cpus: Raw Gem5 Running in Cycle:        93900000, Inst:        85016956
3302502051500: system.switch_cpus: Raw Gem5 Running in Cycle:        94000000, Inst:        85108104
3302552051500: system.switch_cpus: Raw Gem5 Running in Cycle:        94100000, Inst:        85199310
3302602051500: system.switch_cpus: Raw Gem5 Running in Cycle:        94200000, Inst:        85287705
3302652051500: system.switch_cpus: Raw Gem5 Running in Cycle:        94300000, Inst:        85378572
3302702051500: system.switch_cpus: Raw Gem5 Running in Cycle:        94400000, Inst:        85468011
3302752051500: system.switch_cpus: Raw Gem5 Running in Cycle:        94500000, Inst:        85558063
3302802051500: system.switch_cpus: Raw Gem5 Running in Cycle:        94600000, Inst:        85650319
3302852051500: system.switch_cpus: Raw Gem5 Running in Cycle:        94700000, Inst:        85739952
3302902051500: system.switch_cpus: Raw Gem5 Running in Cycle:        94800000, Inst:        85831389
3302952051500: system.switch_cpus: Raw Gem5 Running in Cycle:        94900000, Inst:        85923317
3303002051500: system.switch_cpus: Raw Gem5 Running in Cycle:        95000000, Inst:        86011935
3303052051500: system.switch_cpus: Raw Gem5 Running in Cycle:        95100000, Inst:        86101365
3303102051500: system.switch_cpus: Raw Gem5 Running in Cycle:        95200000, Inst:        86194206
3303152051500: system.switch_cpus: Raw Gem5 Running in Cycle:        95300000, Inst:        86285403
3303202051500: system.switch_cpus: Raw Gem5 Running in Cycle:        95400000, Inst:        86375098
3303252051500: system.switch_cpus: Raw Gem5 Running in Cycle:        95500000, Inst:        86466214
3303302051500: system.switch_cpus: Raw Gem5 Running in Cycle:        95600000, Inst:        86555880
3303352051500: system.switch_cpus: Raw Gem5 Running in Cycle:        95700000, Inst:        86647560
3303402051500: system.switch_cpus: Raw Gem5 Running in Cycle:        95800000, Inst:        86736529
3303452051500: system.switch_cpus: Raw Gem5 Running in Cycle:        95900000, Inst:        86826912
3303502051500: system.switch_cpus: Raw Gem5 Running in Cycle:        96000000, Inst:        86918610
3303552051500: system.switch_cpus: Raw Gem5 Running in Cycle:        96100000, Inst:        87008346
3303602051500: system.switch_cpus: Raw Gem5 Running in Cycle:        96200000, Inst:        87098373
3303652051500: system.switch_cpus: Raw Gem5 Running in Cycle:        96300000, Inst:        87189234
3303702051500: system.switch_cpus: Raw Gem5 Running in Cycle:        96400000, Inst:        87279299
3303752051500: system.switch_cpus: Raw Gem5 Running in Cycle:        96500000, Inst:        87368370
3303802051500: system.switch_cpus: Raw Gem5 Running in Cycle:        96600000, Inst:        87458409
3303852051500: system.switch_cpus: Raw Gem5 Running in Cycle:        96700000, Inst:        87549090
3303902051500: system.switch_cpus: Raw Gem5 Running in Cycle:        96800000, Inst:        87641198
3303952051500: system.switch_cpus: Raw Gem5 Running in Cycle:        96900000, Inst:        87732336
3304002051500: system.switch_cpus: Raw Gem5 Running in Cycle:        97000000, Inst:        87822422
3304052051500: system.switch_cpus: Raw Gem5 Running in Cycle:        97100000, Inst:        87912027
3304102051500: system.switch_cpus: Raw Gem5 Running in Cycle:        97200000, Inst:        88003258
3304152051500: system.switch_cpus: Raw Gem5 Running in Cycle:        97300000, Inst:        88092165
3304202051500: system.switch_cpus: Raw Gem5 Running in Cycle:        97400000, Inst:        88183805
3304252051500: system.switch_cpus: Raw Gem5 Running in Cycle:        97500000, Inst:        88273566
3304302051500: system.switch_cpus: Raw Gem5 Running in Cycle:        97600000, Inst:        88364865
3304352051500: system.switch_cpus: Raw Gem5 Running in Cycle:        97700000, Inst:        88456122
3304402051500: system.switch_cpus: Raw Gem5 Running in Cycle:        97800000, Inst:        88546866
3304452051500: system.switch_cpus: Raw Gem5 Running in Cycle:        97900000, Inst:        88636698
3304502051500: system.switch_cpus: Raw Gem5 Running in Cycle:        98000000, Inst:        88726048
3304552051500: system.switch_cpus: Raw Gem5 Running in Cycle:        98100000, Inst:        88814826
3304602051500: system.switch_cpus: Raw Gem5 Running in Cycle:        98200000, Inst:        88905595
3304652051500: system.switch_cpus: Raw Gem5 Running in Cycle:        98300000, Inst:        88996402
3304702051500: system.switch_cpus: Raw Gem5 Running in Cycle:        98400000, Inst:        89085623
3304752051500: system.switch_cpus: Raw Gem5 Running in Cycle:        98500000, Inst:        89177207
3304802051500: system.switch_cpus: Raw Gem5 Running in Cycle:        98600000, Inst:        89268489
3304852051500: system.switch_cpus: Raw Gem5 Running in Cycle:        98700000, Inst:        89358069
3304902051500: system.switch_cpus: Raw Gem5 Running in Cycle:        98800000, Inst:        89447770
3304952051500: system.switch_cpus: Raw Gem5 Running in Cycle:        98900000, Inst:        89538913
3305002051500: system.switch_cpus: Raw Gem5 Running in Cycle:        99000000, Inst:        89630173
3305052051500: system.switch_cpus: Raw Gem5 Running in Cycle:        99100000, Inst:        89722954
3305102051500: system.switch_cpus: Raw Gem5 Running in Cycle:        99200000, Inst:        89812379
3305152051500: system.switch_cpus: Raw Gem5 Running in Cycle:        99300000, Inst:        89903743
3305202051500: system.switch_cpus: Raw Gem5 Running in Cycle:        99400000, Inst:        89993314
3305252051500: system.switch_cpus: Raw Gem5 Running in Cycle:        99500000, Inst:        90082702
3305302051500: system.switch_cpus: Raw Gem5 Running in Cycle:        99600000, Inst:        90173947
3305352051500: system.switch_cpus: Raw Gem5 Running in Cycle:        99700000, Inst:        90266686
3305402051500: system.switch_cpus: Raw Gem5 Running in Cycle:        99800000, Inst:        90355189
3305452051500: system.switch_cpus: Raw Gem5 Running in Cycle:        99900000, Inst:        90445798
3305502051500: system.switch_cpus: Raw Gem5 Running in Cycle:       100000000, Inst:        90536995
3305552051500: system.switch_cpus: Raw Gem5 Running in Cycle:       100100000, Inst:        90626412
3305602051500: system.switch_cpus: Raw Gem5 Running in Cycle:       100200000, Inst:        90716496
3305652051500: system.switch_cpus: Raw Gem5 Running in Cycle:       100300000, Inst:        90807467
3305702051500: system.switch_cpus: Raw Gem5 Running in Cycle:       100400000, Inst:        90897100
3305752051500: system.switch_cpus: Raw Gem5 Running in Cycle:       100500000, Inst:        90989485
3305802051500: system.switch_cpus: Raw Gem5 Running in Cycle:       100600000, Inst:        91079312
3305852051500: system.switch_cpus: Raw Gem5 Running in Cycle:       100700000, Inst:        91170580
3305902051500: system.switch_cpus: Raw Gem5 Running in Cycle:       100800000, Inst:        91261777
3305952051500: system.switch_cpus: Raw Gem5 Running in Cycle:       100900000, Inst:        91351217
3306002051500: system.switch_cpus: Raw Gem5 Running in Cycle:       101000000, Inst:        91440835
3306052051500: system.switch_cpus: Raw Gem5 Running in Cycle:       101100000, Inst:        91533616
3306102051500: system.switch_cpus: Raw Gem5 Running in Cycle:       101200000, Inst:        91624192
3306152051500: system.switch_cpus: Raw Gem5 Running in Cycle:       101300000, Inst:        91714312
3306202051500: system.switch_cpus: Raw Gem5 Running in Cycle:       101400000, Inst:        91805462
3306252051500: system.switch_cpus: Raw Gem5 Running in Cycle:       101500000, Inst:        91895029
3306302051500: system.switch_cpus: Raw Gem5 Running in Cycle:       101600000, Inst:        91985010
3306352051500: system.switch_cpus: Raw Gem5 Running in Cycle:       101700000, Inst:        92074645
3306402051500: system.switch_cpus: Raw Gem5 Running in Cycle:       101800000, Inst:        92165395
3306452051500: system.switch_cpus: Raw Gem5 Running in Cycle:       101900000, Inst:        92256725
3306502051500: system.switch_cpus: Raw Gem5 Running in Cycle:       102000000, Inst:        92347263
3306552051500: system.switch_cpus: Raw Gem5 Running in Cycle:       102100000, Inst:        92437364
3306602051500: system.switch_cpus: Raw Gem5 Running in Cycle:       102200000, Inst:        92528563
3306652051500: system.switch_cpus: Raw Gem5 Running in Cycle:       102300000, Inst:        92617906
3306702051500: system.switch_cpus: Raw Gem5 Running in Cycle:       102400000, Inst:        92707765
3306752051500: system.switch_cpus: Raw Gem5 Running in Cycle:       102500000, Inst:        92798860
3306802051500: system.switch_cpus: Raw Gem5 Running in Cycle:       102600000, Inst:        92889925
3306852051500: system.switch_cpus: Raw Gem5 Running in Cycle:       102700000, Inst:        92981246
3306902051500: system.switch_cpus: Raw Gem5 Running in Cycle:       102800000, Inst:        93072225
3306952051500: system.switch_cpus: Raw Gem5 Running in Cycle:       102900000, Inst:        93162164
3307002051500: system.switch_cpus: Raw Gem5 Running in Cycle:       103000000, Inst:        93251599
3307052051500: system.switch_cpus: Raw Gem5 Running in Cycle:       103100000, Inst:        93342665
3307102051500: system.switch_cpus: Raw Gem5 Running in Cycle:       103200000, Inst:        93432236
3307152051500: system.switch_cpus: Raw Gem5 Running in Cycle:       103300000, Inst:        93523387
3307202051500: system.switch_cpus: Raw Gem5 Running in Cycle:       103400000, Inst:        93613030
3307252051500: system.switch_cpus: Raw Gem5 Running in Cycle:       103500000, Inst:        93705749
3307302051500: system.switch_cpus: Raw Gem5 Running in Cycle:       103600000, Inst:        93796901
3307352051500: system.switch_cpus: Raw Gem5 Running in Cycle:       103700000, Inst:        93886588
3307402051500: system.switch_cpus: Raw Gem5 Running in Cycle:       103800000, Inst:        93977088
3307452051500: system.switch_cpus: Raw Gem5 Running in Cycle:       103900000, Inst:        94065710
3307502051500: system.switch_cpus: Raw Gem5 Running in Cycle:       104000000, Inst:        94155175
3307552051500: system.switch_cpus: Raw Gem5 Running in Cycle:       104100000, Inst:        94247775
3307602051500: system.switch_cpus: Raw Gem5 Running in Cycle:       104200000, Inst:        94338536
3307652051500: system.switch_cpus: Raw Gem5 Running in Cycle:       104300000, Inst:        94428659
3307702051500: system.switch_cpus: Raw Gem5 Running in Cycle:       104400000, Inst:        94519812
3307752051500: system.switch_cpus: Raw Gem5 Running in Cycle:       104500000, Inst:        94609637
3307802051500: system.switch_cpus: Raw Gem5 Running in Cycle:       104600000, Inst:        94700545
3307852051500: system.switch_cpus: Raw Gem5 Running in Cycle:       104700000, Inst:        94790183
3307902051500: system.switch_cpus: Raw Gem5 Running in Cycle:       104800000, Inst:        94880128
3307952051500: system.switch_cpus: Raw Gem5 Running in Cycle:       104900000, Inst:        94972579
3308002051500: system.switch_cpus: Raw Gem5 Running in Cycle:       105000000, Inst:        95064393
3308052051500: system.switch_cpus: Raw Gem5 Running in Cycle:       105100000, Inst:        95153989
3308102051500: system.switch_cpus: Raw Gem5 Running in Cycle:       105200000, Inst:        95246093
3308152051500: system.switch_cpus: Raw Gem5 Running in Cycle:       105300000, Inst:        95335707
3308202051500: system.switch_cpus: Raw Gem5 Running in Cycle:       105400000, Inst:        95423521
3308252051500: system.switch_cpus: Raw Gem5 Running in Cycle:       105500000, Inst:        95515356
3308302051500: system.switch_cpus: Raw Gem5 Running in Cycle:       105600000, Inst:        95607015
3308352051500: system.switch_cpus: Raw Gem5 Running in Cycle:       105700000, Inst:        95695526
3308402051500: system.switch_cpus: Raw Gem5 Running in Cycle:       105800000, Inst:        95786837
3308452051500: system.switch_cpus: Raw Gem5 Running in Cycle:       105900000, Inst:        95876567
3308502051500: system.switch_cpus: Raw Gem5 Running in Cycle:       106000000, Inst:        95966151
3308552051500: system.switch_cpus: Raw Gem5 Running in Cycle:       106100000, Inst:        96057066
3308602051500: system.switch_cpus: Raw Gem5 Running in Cycle:       106200000, Inst:        96146838
3308652051500: system.switch_cpus: Raw Gem5 Running in Cycle:       106300000, Inst:        96237987
3308702051500: system.switch_cpus: Raw Gem5 Running in Cycle:       106400000, Inst:        96330431
3308752051500: system.switch_cpus: Raw Gem5 Running in Cycle:       106500000, Inst:        96421619
3308802051500: system.switch_cpus: Raw Gem5 Running in Cycle:       106600000, Inst:        96512998
3308852051500: system.switch_cpus: Raw Gem5 Running in Cycle:       106700000, Inst:        96604383
3308902051500: system.switch_cpus: Raw Gem5 Running in Cycle:       106800000, Inst:        96692154
3308952051500: system.switch_cpus: Raw Gem5 Running in Cycle:       106900000, Inst:        96781865
3309002051500: system.switch_cpus: Raw Gem5 Running in Cycle:       107000000, Inst:        96873586
3309052051500: system.switch_cpus: Raw Gem5 Running in Cycle:       107100000, Inst:        96964193
3309102051500: system.switch_cpus: Raw Gem5 Running in Cycle:       107200000, Inst:        97053857
3309152051500: system.switch_cpus: Raw Gem5 Running in Cycle:       107300000, Inst:        97144919
3309202051500: system.switch_cpus: Raw Gem5 Running in Cycle:       107400000, Inst:        97235572
3309252051500: system.switch_cpus: Raw Gem5 Running in Cycle:       107500000, Inst:        97325568
3309302051500: system.switch_cpus: Raw Gem5 Running in Cycle:       107600000, Inst:        97415012
3309352051500: system.switch_cpus: Raw Gem5 Running in Cycle:       107700000, Inst:        97504766
3309402051500: system.switch_cpus: Raw Gem5 Running in Cycle:       107800000, Inst:        97596020
3309452051500: system.switch_cpus: Raw Gem5 Running in Cycle:       107900000, Inst:        97687125
3309502051500: system.switch_cpus: Raw Gem5 Running in Cycle:       108000000, Inst:        97778451
3309552051500: system.switch_cpus: Raw Gem5 Running in Cycle:       108100000, Inst:        97870271
3309602051500: system.switch_cpus: Raw Gem5 Running in Cycle:       108200000, Inst:        97960643
3309652051500: system.switch_cpus: Raw Gem5 Running in Cycle:       108300000, Inst:        98050226
3309702051500: system.switch_cpus: Raw Gem5 Running in Cycle:       108400000, Inst:        98141079
3309752051500: system.switch_cpus: Raw Gem5 Running in Cycle:       108500000, Inst:        98232552
3309802051500: system.switch_cpus: Raw Gem5 Running in Cycle:       108600000, Inst:        98323844
3309852051500: system.switch_cpus: Raw Gem5 Running in Cycle:       108700000, Inst:        98413424
3309902051500: system.switch_cpus: Raw Gem5 Running in Cycle:       108800000, Inst:        98504621
3309952051500: system.switch_cpus: Raw Gem5 Running in Cycle:       108900000, Inst:        98594382
3310002051500: system.switch_cpus: Raw Gem5 Running in Cycle:       109000000, Inst:        98683970
3310052051500: system.switch_cpus: Raw Gem5 Running in Cycle:       109100000, Inst:        98773313
3310102051500: system.switch_cpus: Raw Gem5 Running in Cycle:       109200000, Inst:        98864474
3310152051500: system.switch_cpus: Raw Gem5 Running in Cycle:       109300000, Inst:        98955216
3310202051500: system.switch_cpus: Raw Gem5 Running in Cycle:       109400000, Inst:        99046778
3310252051500: system.switch_cpus: Raw Gem5 Running in Cycle:       109500000, Inst:        99137821
3310302051500: system.switch_cpus: Raw Gem5 Running in Cycle:       109600000, Inst:        99227432
3310352051500: system.switch_cpus: Raw Gem5 Running in Cycle:       109700000, Inst:        99317441
3310402051500: system.switch_cpus: Raw Gem5 Running in Cycle:       109800000, Inst:        99406680
3310452051500: system.switch_cpus: Raw Gem5 Running in Cycle:       109900000, Inst:        99497835
3310502051500: system.switch_cpus: Raw Gem5 Running in Cycle:       110000000, Inst:        99589097
3310552051500: system.switch_cpus: Raw Gem5 Running in Cycle:       110100000, Inst:        99678635
3310602051500: system.switch_cpus: Raw Gem5 Running in Cycle:       110200000, Inst:        99769733
3310652051500: system.switch_cpus: Raw Gem5 Running in Cycle:       110300000, Inst:        99861863
3310702051500: system.switch_cpus: Raw Gem5 Running in Cycle:       110400000, Inst:        99950570
Exiting @ tick 3310728666000 because a thread reached the max instruction count
end time:(year-mon-day hour-minute-second)19-03-30 22-49-53
