
******************************directory****************************
spec_dir: /home/cuihongwei/experiment/mcpat-gem5-master/spec2006/benchspec/CPU2006
run_dir:  /home/cuihongwei/experiment/mcpat-gem5-master/spec2006/benchspec/CPU2006/458.sjeng/run/run_base_ref_amd64.0001
gem5_dir: /home/cuihongwei/experiment/experiment-gem5/raw-gem5
gem5_output_dir: /home/cuihongwei/experiment/experiment-gem5/raw-gem5/output/458.sjeng/alpha-OLD-458.sjeng-input1-190330-211133
benchmark_output:/home/cuihongwei/experiment/experiment-gem5/raw-gem5/output/458.sjeng/alpha-OLD-458.sjeng-input1-190330-211133
checkpoint_dir:/home/cuihongwei/experiment/experiment-gem5/pubs-gem5/output/alpha-458.sjeng-checkpoint-input1

******************************benchmark****************************
target:     458.sjeng
executable: sjeng
args:       ref.txt
input:      
output:     /home/cuihongwei/experiment/experiment-gem5/raw-gem5/output/458.sjeng/alpha-OLD-458.sjeng-input1-190330-211133/ref.out
errout:     /home/cuihongwei/experiment/experiment-gem5/raw-gem5/output/458.sjeng/alpha-OLD-458.sjeng-input1-190330-211133/ref.err

******************************gem5****************************
arch:       /home/cuihongwei/experiment/experiment-gem5/raw-gem5/build/ALPHA/gem5.opt
config:     /home/cuihongwei/experiment/experiment-gem5/raw-gem5/configs/example/se.py
args:       --num-cpus=1 --mem-size=8GB --caches --l1d_size=32kB --l1d_assoc=8 --l1i_size=32kB --l1i_assoc=8 --l2cache --l2_size=2MB --l2_assoc=16 --at-instruction --checkpoint-restore=5000000000 --maxinsts=100000000 --cpu-type=DerivO3CPU
debugFlag:  --debug-flags=ShowRunning

******************************simulation****************************
start time:(year-mon-day hour-minute-second)19-03-30 21-11-33
gem5 Simulator System.  http://gem5.org
gem5 is copyrighted software; use the --copyright option for details.

gem5 compiled Mar 30 2019 20:24:53
gem5 started Mar 30 2019 21:11:34
gem5 executing on mprc-R730, pid 42661
command line: /home/cuihongwei/experiment/experiment-gem5/raw-gem5/build/ALPHA/gem5.opt --outdir=/home/cuihongwei/experiment/experiment-gem5/raw-gem5/output/458.sjeng/alpha-OLD-458.sjeng-input1-190330-211133 --debug-flags=ShowRunning /home/cuihongwei/experiment/experiment-gem5/raw-gem5/configs/example/se.py --num-cpus=1 --mem-size=8GB --caches --l1d_size=32kB --l1d_assoc=8 --l1i_size=32kB --l1i_assoc=8 --l2cache --l2_size=2MB --l2_assoc=16 --at-instruction --checkpoint-restore=5000000000 --maxinsts=100000000 --cpu-type=DerivO3CPU --checkpoint-dir=/home/cuihongwei/experiment/experiment-gem5/pubs-gem5/output/alpha-458.sjeng-checkpoint-input1 --cmd=/home/cuihongwei/experiment/mcpat-gem5-master/spec2006/benchspec/CPU2006/458.sjeng/run/build_peak_alpha.0001/sjeng --options=ref.txt --output=/home/cuihongwei/experiment/experiment-gem5/raw-gem5/output/458.sjeng/alpha-OLD-458.sjeng-input1-190330-211133/ref.out --input= --errout=/home/cuihongwei/experiment/experiment-gem5/raw-gem5/output/458.sjeng/alpha-OLD-458.sjeng-input1-190330-211133/ref.err

Global frequency set at 1000000000000 ticks per second
Switch at curTick count:10000
Switched CPUS @ tick 2168570329500
switching cpus
**** REAL SIMULATION ****
2168570330000: system.switch_cpus: Raw Gem5 Running in Cycle:               0, Inst:               0
2168640174500: system.switch_cpus: Raw Gem5 Running in Cycle:          100000, Inst:           69808
2168690999000: system.switch_cpus: Raw Gem5 Running in Cycle:          200000, Inst:          183526
2168741337000: system.switch_cpus: Raw Gem5 Running in Cycle:          300000, Inst:          313041
2168793045000: system.switch_cpus: Raw Gem5 Running in Cycle:          400000, Inst:          437449
2168844134000: system.switch_cpus: Raw Gem5 Running in Cycle:          500000, Inst:          581439
2168894159500: system.switch_cpus: Raw Gem5 Running in Cycle:          600000, Inst:          715050
2168944407000: system.switch_cpus: Raw Gem5 Running in Cycle:          700000, Inst:          852735
2168994761500: system.switch_cpus: Raw Gem5 Running in Cycle:          800000, Inst:          984900
2169044993500: system.switch_cpus: Raw Gem5 Running in Cycle:          900000, Inst:         1129849
2169094998500: system.switch_cpus: Raw Gem5 Running in Cycle:         1000000, Inst:         1281426
2169145004500: system.switch_cpus: Raw Gem5 Running in Cycle:         1100000, Inst:         1425788
2169195338500: system.switch_cpus: Raw Gem5 Running in Cycle:         1200000, Inst:         1560074
2169245503500: system.switch_cpus: Raw Gem5 Running in Cycle:         1300000, Inst:         1713777
2169295658500: system.switch_cpus: Raw Gem5 Running in Cycle:         1400000, Inst:         1846253
2169345669000: system.switch_cpus: Raw Gem5 Running in Cycle:         1500000, Inst:         2021298
2169395696000: system.switch_cpus: Raw Gem5 Running in Cycle:         1600000, Inst:         2171073
2169445711000: system.switch_cpus: Raw Gem5 Running in Cycle:         1700000, Inst:         2304280
2169495903000: system.switch_cpus: Raw Gem5 Running in Cycle:         1800000, Inst:         2442791
2169545914000: system.switch_cpus: Raw Gem5 Running in Cycle:         1900000, Inst:         2581175
2169595921500: system.switch_cpus: Raw Gem5 Running in Cycle:         2000000, Inst:         2730490
2169645935000: system.switch_cpus: Raw Gem5 Running in Cycle:         2100000, Inst:         2886043
2169695950500: system.switch_cpus: Raw Gem5 Running in Cycle:         2200000, Inst:         3052098
2169745978500: system.switch_cpus: Raw Gem5 Running in Cycle:         2300000, Inst:         3205792
2169796000500: system.switch_cpus: Raw Gem5 Running in Cycle:         2400000, Inst:         3348351
2169846159000: system.switch_cpus: Raw Gem5 Running in Cycle:         2500000, Inst:         3492834
2169896246000: system.switch_cpus: Raw Gem5 Running in Cycle:         2600000, Inst:         3651512
2169946249000: system.switch_cpus: Raw Gem5 Running in Cycle:         2700000, Inst:         3812613
2169996281000: system.switch_cpus: Raw Gem5 Running in Cycle:         2800000, Inst:         3935579
2170046536500: system.switch_cpus: Raw Gem5 Running in Cycle:         2900000, Inst:         4084756
2170096545000: system.switch_cpus: Raw Gem5 Running in Cycle:         3000000, Inst:         4221491
2170146550000: system.switch_cpus: Raw Gem5 Running in Cycle:         3100000, Inst:         4363646
2170196569500: system.switch_cpus: Raw Gem5 Running in Cycle:         3200000, Inst:         4491093
2170246570000: system.switch_cpus: Raw Gem5 Running in Cycle:         3300000, Inst:         4623597
2170296605500: system.switch_cpus: Raw Gem5 Running in Cycle:         3400000, Inst:         4772401
2170346615500: system.switch_cpus: Raw Gem5 Running in Cycle:         3500000, Inst:         4908281
2170396616500: system.switch_cpus: Raw Gem5 Running in Cycle:         3600000, Inst:         5043734
2170446621500: system.switch_cpus: Raw Gem5 Running in Cycle:         3700000, Inst:         5196661
2170496628500: system.switch_cpus: Raw Gem5 Running in Cycle:         3800000, Inst:         5326387
2170546643000: system.switch_cpus: Raw Gem5 Running in Cycle:         3900000, Inst:         5462402
2170596925500: system.switch_cpus: Raw Gem5 Running in Cycle:         4000000, Inst:         5616042
2170646938500: system.switch_cpus: Raw Gem5 Running in Cycle:         4100000, Inst:         5772581
2170696960500: system.switch_cpus: Raw Gem5 Running in Cycle:         4200000, Inst:         5921449
2170746980000: system.switch_cpus: Raw Gem5 Running in Cycle:         4300000, Inst:         6096452
2170797106500: system.switch_cpus: Raw Gem5 Running in Cycle:         4400000, Inst:         6262725
2170847130000: system.switch_cpus: Raw Gem5 Running in Cycle:         4500000, Inst:         6447148
2170897147500: system.switch_cpus: Raw Gem5 Running in Cycle:         4600000, Inst:         6609240
2170947148500: system.switch_cpus: Raw Gem5 Running in Cycle:         4700000, Inst:         6743086
2170997161500: system.switch_cpus: Raw Gem5 Running in Cycle:         4800000, Inst:         6874553
2171047169500: system.switch_cpus: Raw Gem5 Running in Cycle:         4900000, Inst:         7025392
2171097197000: system.switch_cpus: Raw Gem5 Running in Cycle:         5000000, Inst:         7153725
2171147199000: system.switch_cpus: Raw Gem5 Running in Cycle:         5100000, Inst:         7283998
2171197205500: system.switch_cpus: Raw Gem5 Running in Cycle:         5200000, Inst:         7432283
2171247226500: system.switch_cpus: Raw Gem5 Running in Cycle:         5300000, Inst:         7605117
2171297241000: system.switch_cpus: Raw Gem5 Running in Cycle:         5400000, Inst:         7786931
2171347264500: system.switch_cpus: Raw Gem5 Running in Cycle:         5500000, Inst:         7977192
2171397280500: system.switch_cpus: Raw Gem5 Running in Cycle:         5600000, Inst:         8129547
2171447369000: system.switch_cpus: Raw Gem5 Running in Cycle:         5700000, Inst:         8274339
2171497591500: system.switch_cpus: Raw Gem5 Running in Cycle:         5800000, Inst:         8413787
2171547597500: system.switch_cpus: Raw Gem5 Running in Cycle:         5900000, Inst:         8542354
2171597610000: system.switch_cpus: Raw Gem5 Running in Cycle:         6000000, Inst:         8674101
2171647715000: system.switch_cpus: Raw Gem5 Running in Cycle:         6100000, Inst:         8819518
2171697728000: system.switch_cpus: Raw Gem5 Running in Cycle:         6200000, Inst:         8944693
2171747747500: system.switch_cpus: Raw Gem5 Running in Cycle:         6300000, Inst:         9076054
2171797758500: system.switch_cpus: Raw Gem5 Running in Cycle:         6400000, Inst:         9209510
2171847770500: system.switch_cpus: Raw Gem5 Running in Cycle:         6500000, Inst:         9364611
2171897987500: system.switch_cpus: Raw Gem5 Running in Cycle:         6600000, Inst:         9513262
2171948011500: system.switch_cpus: Raw Gem5 Running in Cycle:         6700000, Inst:         9653607
2171998033000: system.switch_cpus: Raw Gem5 Running in Cycle:         6800000, Inst:         9778373
2172048052500: system.switch_cpus: Raw Gem5 Running in Cycle:         6900000, Inst:         9905043
2172098072500: system.switch_cpus: Raw Gem5 Running in Cycle:         7000000, Inst:        10035335
2172148102000: system.switch_cpus: Raw Gem5 Running in Cycle:         7100000, Inst:        10171487
2172198121500: system.switch_cpus: Raw Gem5 Running in Cycle:         7200000, Inst:        10326834
2172248129000: system.switch_cpus: Raw Gem5 Running in Cycle:         7300000, Inst:        10453499
2172298143500: system.switch_cpus: Raw Gem5 Running in Cycle:         7400000, Inst:        10592297
2172348170000: system.switch_cpus: Raw Gem5 Running in Cycle:         7500000, Inst:        10754851
2172398187500: system.switch_cpus: Raw Gem5 Running in Cycle:         7600000, Inst:        10908713
2172448200000: system.switch_cpus: Raw Gem5 Running in Cycle:         7700000, Inst:        11058317
2172498226000: system.switch_cpus: Raw Gem5 Running in Cycle:         7800000, Inst:        11207699
2172548241500: system.switch_cpus: Raw Gem5 Running in Cycle:         7900000, Inst:        11363971
2172598274000: system.switch_cpus: Raw Gem5 Running in Cycle:         8000000, Inst:        11531455
2172648300500: system.switch_cpus: Raw Gem5 Running in Cycle:         8100000, Inst:        11707722
2172698318000: system.switch_cpus: Raw Gem5 Running in Cycle:         8200000, Inst:        11855218
2172748320000: system.switch_cpus: Raw Gem5 Running in Cycle:         8300000, Inst:        11987712
2172798329000: system.switch_cpus: Raw Gem5 Running in Cycle:         8400000, Inst:        12126299
2172848351000: system.switch_cpus: Raw Gem5 Running in Cycle:         8500000, Inst:        12287131
2172898371500: system.switch_cpus: Raw Gem5 Running in Cycle:         8600000, Inst:        12437974
2172948391000: system.switch_cpus: Raw Gem5 Running in Cycle:         8700000, Inst:        12593790
2172998399500: system.switch_cpus: Raw Gem5 Running in Cycle:         8800000, Inst:        12736851
2173049204000: system.switch_cpus: Raw Gem5 Running in Cycle:         8900000, Inst:        12880213
2173099224000: system.switch_cpus: Raw Gem5 Running in Cycle:         9000000, Inst:        13047718
2173149250500: system.switch_cpus: Raw Gem5 Running in Cycle:         9100000, Inst:        13219081
2173199285000: system.switch_cpus: Raw Gem5 Running in Cycle:         9200000, Inst:        13351529
2173249291000: system.switch_cpus: Raw Gem5 Running in Cycle:         9300000, Inst:        13481411
2173299326000: system.switch_cpus: Raw Gem5 Running in Cycle:         9400000, Inst:        13629677
2173349354500: system.switch_cpus: Raw Gem5 Running in Cycle:         9500000, Inst:        13780648
2173399360500: system.switch_cpus: Raw Gem5 Running in Cycle:         9600000, Inst:        13903754
2173449376000: system.switch_cpus: Raw Gem5 Running in Cycle:         9700000, Inst:        14039672
2173499388500: system.switch_cpus: Raw Gem5 Running in Cycle:         9800000, Inst:        14177036
2173549394500: system.switch_cpus: Raw Gem5 Running in Cycle:         9900000, Inst:        14314507
2173599436000: system.switch_cpus: Raw Gem5 Running in Cycle:        10000000, Inst:        14471881
2173649437500: system.switch_cpus: Raw Gem5 Running in Cycle:        10100000, Inst:        14609821
2173699446000: system.switch_cpus: Raw Gem5 Running in Cycle:        10200000, Inst:        14761192
2173749481000: system.switch_cpus: Raw Gem5 Running in Cycle:        10300000, Inst:        14914864
2173799505000: system.switch_cpus: Raw Gem5 Running in Cycle:        10400000, Inst:        15097600
2173849521000: system.switch_cpus: Raw Gem5 Running in Cycle:        10500000, Inst:        15281307
2173899552000: system.switch_cpus: Raw Gem5 Running in Cycle:        10600000, Inst:        15457534
2173949576500: system.switch_cpus: Raw Gem5 Running in Cycle:        10700000, Inst:        15627646
2173999585500: system.switch_cpus: Raw Gem5 Running in Cycle:        10800000, Inst:        15764255
2174049591000: system.switch_cpus: Raw Gem5 Running in Cycle:        10900000, Inst:        15924234
2174099614000: system.switch_cpus: Raw Gem5 Running in Cycle:        11000000, Inst:        16110394
2174149633000: system.switch_cpus: Raw Gem5 Running in Cycle:        11100000, Inst:        16286220
2174199657000: system.switch_cpus: Raw Gem5 Running in Cycle:        11200000, Inst:        16431844
2174249672500: system.switch_cpus: Raw Gem5 Running in Cycle:        11300000, Inst:        16613356
2174299696500: system.switch_cpus: Raw Gem5 Running in Cycle:        11400000, Inst:        16762107
2174349711500: system.switch_cpus: Raw Gem5 Running in Cycle:        11500000, Inst:        16925856
2174399730500: system.switch_cpus: Raw Gem5 Running in Cycle:        11600000, Inst:        17088153
2174449753500: system.switch_cpus: Raw Gem5 Running in Cycle:        11700000, Inst:        17254988
2174499796500: system.switch_cpus: Raw Gem5 Running in Cycle:        11800000, Inst:        17408805
2174549817500: system.switch_cpus: Raw Gem5 Running in Cycle:        11900000, Inst:        17573435
2174599834500: system.switch_cpus: Raw Gem5 Running in Cycle:        12000000, Inst:        17725364
2174649852000: system.switch_cpus: Raw Gem5 Running in Cycle:        12100000, Inst:        17877462
2174699863500: system.switch_cpus: Raw Gem5 Running in Cycle:        12200000, Inst:        18026370
2174749879000: system.switch_cpus: Raw Gem5 Running in Cycle:        12300000, Inst:        18161071
2174799896500: system.switch_cpus: Raw Gem5 Running in Cycle:        12400000, Inst:        18302282
2174849912000: system.switch_cpus: Raw Gem5 Running in Cycle:        12500000, Inst:        18448236
2174899931000: system.switch_cpus: Raw Gem5 Running in Cycle:        12600000, Inst:        18585626
2174949940500: system.switch_cpus: Raw Gem5 Running in Cycle:        12700000, Inst:        18735061
2174999970500: system.switch_cpus: Raw Gem5 Running in Cycle:        12800000, Inst:        18890402
2175049988000: system.switch_cpus: Raw Gem5 Running in Cycle:        12900000, Inst:        19035789
2175099994000: system.switch_cpus: Raw Gem5 Running in Cycle:        13000000, Inst:        19154125
2175150021500: system.switch_cpus: Raw Gem5 Running in Cycle:        13100000, Inst:        19293763
2175200023500: system.switch_cpus: Raw Gem5 Running in Cycle:        13200000, Inst:        19445457
2175250034000: system.switch_cpus: Raw Gem5 Running in Cycle:        13300000, Inst:        19573967
2175300034000: system.switch_cpus: Raw Gem5 Running in Cycle:        13400000, Inst:        19708143
2175350061000: system.switch_cpus: Raw Gem5 Running in Cycle:        13500000, Inst:        19859134
2175400066500: system.switch_cpus: Raw Gem5 Running in Cycle:        13600000, Inst:        19999662
2175450075500: system.switch_cpus: Raw Gem5 Running in Cycle:        13700000, Inst:        20133763
2175500096500: system.switch_cpus: Raw Gem5 Running in Cycle:        13800000, Inst:        20289407
2175550099500: system.switch_cpus: Raw Gem5 Running in Cycle:        13900000, Inst:        20423981
2175600143000: system.switch_cpus: Raw Gem5 Running in Cycle:        14000000, Inst:        20566255
2175650162000: system.switch_cpus: Raw Gem5 Running in Cycle:        14100000, Inst:        20708707
2175700323000: system.switch_cpus: Raw Gem5 Running in Cycle:        14200000, Inst:        20849646
2175750358000: system.switch_cpus: Raw Gem5 Running in Cycle:        14300000, Inst:        20967863
2175800366500: system.switch_cpus: Raw Gem5 Running in Cycle:        14400000, Inst:        21117245
2175850376000: system.switch_cpus: Raw Gem5 Running in Cycle:        14500000, Inst:        21244301
2175900393500: system.switch_cpus: Raw Gem5 Running in Cycle:        14600000, Inst:        21386296
2175950417000: system.switch_cpus: Raw Gem5 Running in Cycle:        14700000, Inst:        21507451
2176000424000: system.switch_cpus: Raw Gem5 Running in Cycle:        14800000, Inst:        21637065
2176050440500: system.switch_cpus: Raw Gem5 Running in Cycle:        14900000, Inst:        21787230
2176100455500: system.switch_cpus: Raw Gem5 Running in Cycle:        15000000, Inst:        21940947
2176150466500: system.switch_cpus: Raw Gem5 Running in Cycle:        15100000, Inst:        22104149
2176200481500: system.switch_cpus: Raw Gem5 Running in Cycle:        15200000, Inst:        22240312
2176250510500: system.switch_cpus: Raw Gem5 Running in Cycle:        15300000, Inst:        22377687
2176300524000: system.switch_cpus: Raw Gem5 Running in Cycle:        15400000, Inst:        22530974
2176350540000: system.switch_cpus: Raw Gem5 Running in Cycle:        15500000, Inst:        22674270
2176400563500: system.switch_cpus: Raw Gem5 Running in Cycle:        15600000, Inst:        22825792
2176450596000: system.switch_cpus: Raw Gem5 Running in Cycle:        15700000, Inst:        22964666
2176500616500: system.switch_cpus: Raw Gem5 Running in Cycle:        15800000, Inst:        23107989
2176550634000: system.switch_cpus: Raw Gem5 Running in Cycle:        15900000, Inst:        23263182
2176600648500: system.switch_cpus: Raw Gem5 Running in Cycle:        16000000, Inst:        23396200
2176650671000: system.switch_cpus: Raw Gem5 Running in Cycle:        16100000, Inst:        23542641
2176700687000: system.switch_cpus: Raw Gem5 Running in Cycle:        16200000, Inst:        23664489
2176750701000: system.switch_cpus: Raw Gem5 Running in Cycle:        16300000, Inst:        23804268
2176800723000: system.switch_cpus: Raw Gem5 Running in Cycle:        16400000, Inst:        23936513
2176850734500: system.switch_cpus: Raw Gem5 Running in Cycle:        16500000, Inst:        24070484
2176900749000: system.switch_cpus: Raw Gem5 Running in Cycle:        16600000, Inst:        24202363
2176950778500: system.switch_cpus: Raw Gem5 Running in Cycle:        16700000, Inst:        24336506
2177000789500: system.switch_cpus: Raw Gem5 Running in Cycle:        16800000, Inst:        24485661
2177050830500: system.switch_cpus: Raw Gem5 Running in Cycle:        16900000, Inst:        24645347
2177100841500: system.switch_cpus: Raw Gem5 Running in Cycle:        17000000, Inst:        24775922
2177150855000: system.switch_cpus: Raw Gem5 Running in Cycle:        17100000, Inst:        24908360
2177200878500: system.switch_cpus: Raw Gem5 Running in Cycle:        17200000, Inst:        25040114
2177250901000: system.switch_cpus: Raw Gem5 Running in Cycle:        17300000, Inst:        25178073
2177300904500: system.switch_cpus: Raw Gem5 Running in Cycle:        17400000, Inst:        25311963
2177350910500: system.switch_cpus: Raw Gem5 Running in Cycle:        17500000, Inst:        25453088
2177400917000: system.switch_cpus: Raw Gem5 Running in Cycle:        17600000, Inst:        25596210
2177450925000: system.switch_cpus: Raw Gem5 Running in Cycle:        17700000, Inst:        25752636
2177500934000: system.switch_cpus: Raw Gem5 Running in Cycle:        17800000, Inst:        25887649
2177550946500: system.switch_cpus: Raw Gem5 Running in Cycle:        17900000, Inst:        26026993
2177600951500: system.switch_cpus: Raw Gem5 Running in Cycle:        18000000, Inst:        26166121
2177650968500: system.switch_cpus: Raw Gem5 Running in Cycle:        18100000, Inst:        26312085
2177700986000: system.switch_cpus: Raw Gem5 Running in Cycle:        18200000, Inst:        26454550
2177751004500: system.switch_cpus: Raw Gem5 Running in Cycle:        18300000, Inst:        26582697
2177801013000: system.switch_cpus: Raw Gem5 Running in Cycle:        18400000, Inst:        26717976
2177851020000: system.switch_cpus: Raw Gem5 Running in Cycle:        18500000, Inst:        26866398
2177901035000: system.switch_cpus: Raw Gem5 Running in Cycle:        18600000, Inst:        26998601
2177951062500: system.switch_cpus: Raw Gem5 Running in Cycle:        18700000, Inst:        27133917
2178001068500: system.switch_cpus: Raw Gem5 Running in Cycle:        18800000, Inst:        27272229
2178051071000: system.switch_cpus: Raw Gem5 Running in Cycle:        18900000, Inst:        27415916
2178101082000: system.switch_cpus: Raw Gem5 Running in Cycle:        19000000, Inst:        27566389
2178151102500: system.switch_cpus: Raw Gem5 Running in Cycle:        19100000, Inst:        27700874
2178201103500: system.switch_cpus: Raw Gem5 Running in Cycle:        19200000, Inst:        27856059
2178251131500: system.switch_cpus: Raw Gem5 Running in Cycle:        19300000, Inst:        28009797
2178301165000: system.switch_cpus: Raw Gem5 Running in Cycle:        19400000, Inst:        28157244
2178351177500: system.switch_cpus: Raw Gem5 Running in Cycle:        19500000, Inst:        28304211
2178401197500: system.switch_cpus: Raw Gem5 Running in Cycle:        19600000, Inst:        28451953
2178451203000: system.switch_cpus: Raw Gem5 Running in Cycle:        19700000, Inst:        28600015
2178501219000: system.switch_cpus: Raw Gem5 Running in Cycle:        19800000, Inst:        28742375
2178551226000: system.switch_cpus: Raw Gem5 Running in Cycle:        19900000, Inst:        28889644
2178601238000: system.switch_cpus: Raw Gem5 Running in Cycle:        20000000, Inst:        29028144
2178651267500: system.switch_cpus: Raw Gem5 Running in Cycle:        20100000, Inst:        29166599
2178701274000: system.switch_cpus: Raw Gem5 Running in Cycle:        20200000, Inst:        29301667
2178751290000: system.switch_cpus: Raw Gem5 Running in Cycle:        20300000, Inst:        29437551
2178801293500: system.switch_cpus: Raw Gem5 Running in Cycle:        20400000, Inst:        29574884
2178851299500: system.switch_cpus: Raw Gem5 Running in Cycle:        20500000, Inst:        29712291
2178901301500: system.switch_cpus: Raw Gem5 Running in Cycle:        20600000, Inst:        29855274
2178951320500: system.switch_cpus: Raw Gem5 Running in Cycle:        20700000, Inst:        29992963
2179001327000: system.switch_cpus: Raw Gem5 Running in Cycle:        20800000, Inst:        30141147
2179051328000: system.switch_cpus: Raw Gem5 Running in Cycle:        20900000, Inst:        30288463
2179101339500: system.switch_cpus: Raw Gem5 Running in Cycle:        21000000, Inst:        30430893
2179151343500: system.switch_cpus: Raw Gem5 Running in Cycle:        21100000, Inst:        30569607
2179201352500: system.switch_cpus: Raw Gem5 Running in Cycle:        21200000, Inst:        30710109
2179251359000: system.switch_cpus: Raw Gem5 Running in Cycle:        21300000, Inst:        30858268
2179301381500: system.switch_cpus: Raw Gem5 Running in Cycle:        21400000, Inst:        30996587
2179351400500: system.switch_cpus: Raw Gem5 Running in Cycle:        21500000, Inst:        31135309
2179401413000: system.switch_cpus: Raw Gem5 Running in Cycle:        21600000, Inst:        31273561
2179451425500: system.switch_cpus: Raw Gem5 Running in Cycle:        21700000, Inst:        31406604
2179501455000: system.switch_cpus: Raw Gem5 Running in Cycle:        21800000, Inst:        31540300
2179551489500: system.switch_cpus: Raw Gem5 Running in Cycle:        21900000, Inst:        31681143
2179601493500: system.switch_cpus: Raw Gem5 Running in Cycle:        22000000, Inst:        31814840
2179651525000: system.switch_cpus: Raw Gem5 Running in Cycle:        22100000, Inst:        31965947
2179701553500: system.switch_cpus: Raw Gem5 Running in Cycle:        22200000, Inst:        32121322
2179751577500: system.switch_cpus: Raw Gem5 Running in Cycle:        22300000, Inst:        32262557
2179801609000: system.switch_cpus: Raw Gem5 Running in Cycle:        22400000, Inst:        32404279
2179851639000: system.switch_cpus: Raw Gem5 Running in Cycle:        22500000, Inst:        32563495
2179901657000: system.switch_cpus: Raw Gem5 Running in Cycle:        22600000, Inst:        32710154
2179951680000: system.switch_cpus: Raw Gem5 Running in Cycle:        22700000, Inst:        32855198
2180001686000: system.switch_cpus: Raw Gem5 Running in Cycle:        22800000, Inst:        33019928
2180051714000: system.switch_cpus: Raw Gem5 Running in Cycle:        22900000, Inst:        33170407
2180101728000: system.switch_cpus: Raw Gem5 Running in Cycle:        23000000, Inst:        33315248
2180151731000: system.switch_cpus: Raw Gem5 Running in Cycle:        23100000, Inst:        33466525
2180201755000: system.switch_cpus: Raw Gem5 Running in Cycle:        23200000, Inst:        33614947
2180251768000: system.switch_cpus: Raw Gem5 Running in Cycle:        23300000, Inst:        33757562
2180301790500: system.switch_cpus: Raw Gem5 Running in Cycle:        23400000, Inst:        33907463
2180351804500: system.switch_cpus: Raw Gem5 Running in Cycle:        23500000, Inst:        34043751
2180401816000: system.switch_cpus: Raw Gem5 Running in Cycle:        23600000, Inst:        34179637
2180451829000: system.switch_cpus: Raw Gem5 Running in Cycle:        23700000, Inst:        34311483
2180501883000: system.switch_cpus: Raw Gem5 Running in Cycle:        23800000, Inst:        34459323
2180551905000: system.switch_cpus: Raw Gem5 Running in Cycle:        23900000, Inst:        34629323
2180601915500: system.switch_cpus: Raw Gem5 Running in Cycle:        24000000, Inst:        34749352
2180651950500: system.switch_cpus: Raw Gem5 Running in Cycle:        24100000, Inst:        34873697
2180701983000: system.switch_cpus: Raw Gem5 Running in Cycle:        24200000, Inst:        35012018
2180751984000: system.switch_cpus: Raw Gem5 Running in Cycle:        24300000, Inst:        35165621
2180802006000: system.switch_cpus: Raw Gem5 Running in Cycle:        24400000, Inst:        35307755
2180852025500: system.switch_cpus: Raw Gem5 Running in Cycle:        24500000, Inst:        35461731
2180902035500: system.switch_cpus: Raw Gem5 Running in Cycle:        24600000, Inst:        35598003
2180952045500: system.switch_cpus: Raw Gem5 Running in Cycle:        24700000, Inst:        35748468
2181002054000: system.switch_cpus: Raw Gem5 Running in Cycle:        24800000, Inst:        35883202
2181052092500: system.switch_cpus: Raw Gem5 Running in Cycle:        24900000, Inst:        36028143
2181102119500: system.switch_cpus: Raw Gem5 Running in Cycle:        25000000, Inst:        36161878
2181152123000: system.switch_cpus: Raw Gem5 Running in Cycle:        25100000, Inst:        36295901
2181202123500: system.switch_cpus: Raw Gem5 Running in Cycle:        25200000, Inst:        36433508
2181252139000: system.switch_cpus: Raw Gem5 Running in Cycle:        25300000, Inst:        36569332
2181302150500: system.switch_cpus: Raw Gem5 Running in Cycle:        25400000, Inst:        36719844
2181352159000: system.switch_cpus: Raw Gem5 Running in Cycle:        25500000, Inst:        36859922
2181402180000: system.switch_cpus: Raw Gem5 Running in Cycle:        25600000, Inst:        37000536
2181452197000: system.switch_cpus: Raw Gem5 Running in Cycle:        25700000, Inst:        37150653
2181502230500: system.switch_cpus: Raw Gem5 Running in Cycle:        25800000, Inst:        37283223
2181552246500: system.switch_cpus: Raw Gem5 Running in Cycle:        25900000, Inst:        37428860
2181602258000: system.switch_cpus: Raw Gem5 Running in Cycle:        26000000, Inst:        37574622
2181652269500: system.switch_cpus: Raw Gem5 Running in Cycle:        26100000, Inst:        37721878
2181702296000: system.switch_cpus: Raw Gem5 Running in Cycle:        26200000, Inst:        37850705
2181752323500: system.switch_cpus: Raw Gem5 Running in Cycle:        26300000, Inst:        37987285
2181802347500: system.switch_cpus: Raw Gem5 Running in Cycle:        26400000, Inst:        38108853
2181852360500: system.switch_cpus: Raw Gem5 Running in Cycle:        26500000, Inst:        38238838
2181902382500: system.switch_cpus: Raw Gem5 Running in Cycle:        26600000, Inst:        38375168
2181952393000: system.switch_cpus: Raw Gem5 Running in Cycle:        26700000, Inst:        38512067
2182002393500: system.switch_cpus: Raw Gem5 Running in Cycle:        26800000, Inst:        38646810
2182052425000: system.switch_cpus: Raw Gem5 Running in Cycle:        26900000, Inst:        38784409
2182102440000: system.switch_cpus: Raw Gem5 Running in Cycle:        27000000, Inst:        38924789
2182152449000: system.switch_cpus: Raw Gem5 Running in Cycle:        27100000, Inst:        39066764
2182202455500: system.switch_cpus: Raw Gem5 Running in Cycle:        27200000, Inst:        39217243
2182252463500: system.switch_cpus: Raw Gem5 Running in Cycle:        27300000, Inst:        39352136
2182302511000: system.switch_cpus: Raw Gem5 Running in Cycle:        27400000, Inst:        39490693
2182352518000: system.switch_cpus: Raw Gem5 Running in Cycle:        27500000, Inst:        39627705
2182402525000: system.switch_cpus: Raw Gem5 Running in Cycle:        27600000, Inst:        39775538
2182452533500: system.switch_cpus: Raw Gem5 Running in Cycle:        27700000, Inst:        39930208
2182502547000: system.switch_cpus: Raw Gem5 Running in Cycle:        27800000, Inst:        40088629
2182552557500: system.switch_cpus: Raw Gem5 Running in Cycle:        27900000, Inst:        40260425
2182602592000: system.switch_cpus: Raw Gem5 Running in Cycle:        28000000, Inst:        40412453
2182652608500: system.switch_cpus: Raw Gem5 Running in Cycle:        28100000, Inst:        40567604
2182702612500: system.switch_cpus: Raw Gem5 Running in Cycle:        28200000, Inst:        40719440
2182752633000: system.switch_cpus: Raw Gem5 Running in Cycle:        28300000, Inst:        40853998
2182802640000: system.switch_cpus: Raw Gem5 Running in Cycle:        28400000, Inst:        40983110
2182852688000: system.switch_cpus: Raw Gem5 Running in Cycle:        28500000, Inst:        41115188
2182902722000: system.switch_cpus: Raw Gem5 Running in Cycle:        28600000, Inst:        41259210
2182952726000: system.switch_cpus: Raw Gem5 Running in Cycle:        28700000, Inst:        41392201
2183002737000: system.switch_cpus: Raw Gem5 Running in Cycle:        28800000, Inst:        41532640
2183052766500: system.switch_cpus: Raw Gem5 Running in Cycle:        28900000, Inst:        41682476
2183102787000: system.switch_cpus: Raw Gem5 Running in Cycle:        29000000, Inst:        41830297
2183152823500: system.switch_cpus: Raw Gem5 Running in Cycle:        29100000, Inst:        41941850
2183202843000: system.switch_cpus: Raw Gem5 Running in Cycle:        29200000, Inst:        42084130
2183252892500: system.switch_cpus: Raw Gem5 Running in Cycle:        29300000, Inst:        42225846
2183302905500: system.switch_cpus: Raw Gem5 Running in Cycle:        29400000, Inst:        42361702
2183352913500: system.switch_cpus: Raw Gem5 Running in Cycle:        29500000, Inst:        42505102
2183402929000: system.switch_cpus: Raw Gem5 Running in Cycle:        29600000, Inst:        42638776
2183452947500: system.switch_cpus: Raw Gem5 Running in Cycle:        29700000, Inst:        42783256
2183502999000: system.switch_cpus: Raw Gem5 Running in Cycle:        29800000, Inst:        42915558
2183553023000: system.switch_cpus: Raw Gem5 Running in Cycle:        29900000, Inst:        43066482
2183603044500: system.switch_cpus: Raw Gem5 Running in Cycle:        30000000, Inst:        43192597
2183653050500: system.switch_cpus: Raw Gem5 Running in Cycle:        30100000, Inst:        43323756
2183703073000: system.switch_cpus: Raw Gem5 Running in Cycle:        30200000, Inst:        43465968
2183753092000: system.switch_cpus: Raw Gem5 Running in Cycle:        30300000, Inst:        43601634
2183803118500: system.switch_cpus: Raw Gem5 Running in Cycle:        30400000, Inst:        43750611
2183853148000: system.switch_cpus: Raw Gem5 Running in Cycle:        30500000, Inst:        43889703
2183903154500: system.switch_cpus: Raw Gem5 Running in Cycle:        30600000, Inst:        44022452
2183953191000: system.switch_cpus: Raw Gem5 Running in Cycle:        30700000, Inst:        44155695
2184003202000: system.switch_cpus: Raw Gem5 Running in Cycle:        30800000, Inst:        44283439
2184053242500: system.switch_cpus: Raw Gem5 Running in Cycle:        30900000, Inst:        44422069
2184103257000: system.switch_cpus: Raw Gem5 Running in Cycle:        31000000, Inst:        44569043
2184153276500: system.switch_cpus: Raw Gem5 Running in Cycle:        31100000, Inst:        44701152
2184203299000: system.switch_cpus: Raw Gem5 Running in Cycle:        31200000, Inst:        44841717
2184253304000: system.switch_cpus: Raw Gem5 Running in Cycle:        31300000, Inst:        44970746
2184303315000: system.switch_cpus: Raw Gem5 Running in Cycle:        31400000, Inst:        45103026
2184353326500: system.switch_cpus: Raw Gem5 Running in Cycle:        31500000, Inst:        45235872
2184403338500: system.switch_cpus: Raw Gem5 Running in Cycle:        31600000, Inst:        45369543
2184453357500: system.switch_cpus: Raw Gem5 Running in Cycle:        31700000, Inst:        45500179
2184503388500: system.switch_cpus: Raw Gem5 Running in Cycle:        31800000, Inst:        45634593
2184553416500: system.switch_cpus: Raw Gem5 Running in Cycle:        31900000, Inst:        45777666
2184603435500: system.switch_cpus: Raw Gem5 Running in Cycle:        32000000, Inst:        45914687
2184653450000: system.switch_cpus: Raw Gem5 Running in Cycle:        32100000, Inst:        46048139
2184703463000: system.switch_cpus: Raw Gem5 Running in Cycle:        32200000, Inst:        46191098
2184753482500: system.switch_cpus: Raw Gem5 Running in Cycle:        32300000, Inst:        46324568
2184803515000: system.switch_cpus: Raw Gem5 Running in Cycle:        32400000, Inst:        46474170
2184853528500: system.switch_cpus: Raw Gem5 Running in Cycle:        32500000, Inst:        46604161
2184903541000: system.switch_cpus: Raw Gem5 Running in Cycle:        32600000, Inst:        46747825
2184953546500: system.switch_cpus: Raw Gem5 Running in Cycle:        32700000, Inst:        46884062
2185003560500: system.switch_cpus: Raw Gem5 Running in Cycle:        32800000, Inst:        47035127
2185053578000: system.switch_cpus: Raw Gem5 Running in Cycle:        32900000, Inst:        47180250
2185103596000: system.switch_cpus: Raw Gem5 Running in Cycle:        33000000, Inst:        47320972
2185153624500: system.switch_cpus: Raw Gem5 Running in Cycle:        33100000, Inst:        47458308
2185203663500: system.switch_cpus: Raw Gem5 Running in Cycle:        33200000, Inst:        47606236
2185253689500: system.switch_cpus: Raw Gem5 Running in Cycle:        33300000, Inst:        47756190
2185303713500: system.switch_cpus: Raw Gem5 Running in Cycle:        33400000, Inst:        47893493
2185353734500: system.switch_cpus: Raw Gem5 Running in Cycle:        33500000, Inst:        48050810
2185403752000: system.switch_cpus: Raw Gem5 Running in Cycle:        33600000, Inst:        48182702
2185453763000: system.switch_cpus: Raw Gem5 Running in Cycle:        33700000, Inst:        48325034
2185503774000: system.switch_cpus: Raw Gem5 Running in Cycle:        33800000, Inst:        48481991
2185553799500: system.switch_cpus: Raw Gem5 Running in Cycle:        33900000, Inst:        48625797
2185603829000: system.switch_cpus: Raw Gem5 Running in Cycle:        34000000, Inst:        48761296
2185653838000: system.switch_cpus: Raw Gem5 Running in Cycle:        34100000, Inst:        48908420
2185703865000: system.switch_cpus: Raw Gem5 Running in Cycle:        34200000, Inst:        49057092
2185753971500: system.switch_cpus: Raw Gem5 Running in Cycle:        34300000, Inst:        49210284
2185809652500: system.switch_cpus: Raw Gem5 Running in Cycle:        34400000, Inst:        49341317
2185859695000: system.switch_cpus: Raw Gem5 Running in Cycle:        34500000, Inst:        49488919
2185909707000: system.switch_cpus: Raw Gem5 Running in Cycle:        34600000, Inst:        49628413
2185959728500: system.switch_cpus: Raw Gem5 Running in Cycle:        34700000, Inst:        49779594
2186009740000: system.switch_cpus: Raw Gem5 Running in Cycle:        34800000, Inst:        49951857
2186059766000: system.switch_cpus: Raw Gem5 Running in Cycle:        34900000, Inst:        50099400
2186109782000: system.switch_cpus: Raw Gem5 Running in Cycle:        35000000, Inst:        50234304
2186159791000: system.switch_cpus: Raw Gem5 Running in Cycle:        35100000, Inst:        50369100
2186209798500: system.switch_cpus: Raw Gem5 Running in Cycle:        35200000, Inst:        50503397
2186259821500: system.switch_cpus: Raw Gem5 Running in Cycle:        35300000, Inst:        50644809
2186309842500: system.switch_cpus: Raw Gem5 Running in Cycle:        35400000, Inst:        50790900
2186359858500: system.switch_cpus: Raw Gem5 Running in Cycle:        35500000, Inst:        50960291
2186409889000: system.switch_cpus: Raw Gem5 Running in Cycle:        35600000, Inst:        51092714
2186459903500: system.switch_cpus: Raw Gem5 Running in Cycle:        35700000, Inst:        51230949
2186509932500: system.switch_cpus: Raw Gem5 Running in Cycle:        35800000, Inst:        51355344
2186559947000: system.switch_cpus: Raw Gem5 Running in Cycle:        35900000, Inst:        51482387
2186609954000: system.switch_cpus: Raw Gem5 Running in Cycle:        36000000, Inst:        51606852
2186659966500: system.switch_cpus: Raw Gem5 Running in Cycle:        36100000, Inst:        51734209
2186709976500: system.switch_cpus: Raw Gem5 Running in Cycle:        36200000, Inst:        51861142
2186759985500: system.switch_cpus: Raw Gem5 Running in Cycle:        36300000, Inst:        51996650
2186809995000: system.switch_cpus: Raw Gem5 Running in Cycle:        36400000, Inst:        52128341
2186860000500: system.switch_cpus: Raw Gem5 Running in Cycle:        36500000, Inst:        52281398
2186910022000: system.switch_cpus: Raw Gem5 Running in Cycle:        36600000, Inst:        52411931
2186960030000: system.switch_cpus: Raw Gem5 Running in Cycle:        36700000, Inst:        52561326
2187010044000: system.switch_cpus: Raw Gem5 Running in Cycle:        36800000, Inst:        52700005
2187060066000: system.switch_cpus: Raw Gem5 Running in Cycle:        36900000, Inst:        52872894
2187110090500: system.switch_cpus: Raw Gem5 Running in Cycle:        37000000, Inst:        53030392
2187160105000: system.switch_cpus: Raw Gem5 Running in Cycle:        37100000, Inst:        53205789
2187210130500: system.switch_cpus: Raw Gem5 Running in Cycle:        37200000, Inst:        53358983
2187260147500: system.switch_cpus: Raw Gem5 Running in Cycle:        37300000, Inst:        53517154
2187310162000: system.switch_cpus: Raw Gem5 Running in Cycle:        37400000, Inst:        53683678
2187360178500: system.switch_cpus: Raw Gem5 Running in Cycle:        37500000, Inst:        53854891
2187410187500: system.switch_cpus: Raw Gem5 Running in Cycle:        37600000, Inst:        53997071
2187460203000: system.switch_cpus: Raw Gem5 Running in Cycle:        37700000, Inst:        54128520
2187510214000: system.switch_cpus: Raw Gem5 Running in Cycle:        37800000, Inst:        54289276
2187560246000: system.switch_cpus: Raw Gem5 Running in Cycle:        37900000, Inst:        54422983
2187610247500: system.switch_cpus: Raw Gem5 Running in Cycle:        38000000, Inst:        54556213
2187660257000: system.switch_cpus: Raw Gem5 Running in Cycle:        38100000, Inst:        54692638
2187710268500: system.switch_cpus: Raw Gem5 Running in Cycle:        38200000, Inst:        54848114
2187760282000: system.switch_cpus: Raw Gem5 Running in Cycle:        38300000, Inst:        54988232
2187810290000: system.switch_cpus: Raw Gem5 Running in Cycle:        38400000, Inst:        55119580
2187860298500: system.switch_cpus: Raw Gem5 Running in Cycle:        38500000, Inst:        55254164
2187910304000: system.switch_cpus: Raw Gem5 Running in Cycle:        38600000, Inst:        55399471
2187960310500: system.switch_cpus: Raw Gem5 Running in Cycle:        38700000, Inst:        55532051
2188010325000: system.switch_cpus: Raw Gem5 Running in Cycle:        38800000, Inst:        55671100
2188060355500: system.switch_cpus: Raw Gem5 Running in Cycle:        38900000, Inst:        55806309
2188110386000: system.switch_cpus: Raw Gem5 Running in Cycle:        39000000, Inst:        55960604
2188160392000: system.switch_cpus: Raw Gem5 Running in Cycle:        39100000, Inst:        56100495
2188210396500: system.switch_cpus: Raw Gem5 Running in Cycle:        39200000, Inst:        56232957
2188260399500: system.switch_cpus: Raw Gem5 Running in Cycle:        39300000, Inst:        56362925
2188310400500: system.switch_cpus: Raw Gem5 Running in Cycle:        39400000, Inst:        56498944
2188360407500: system.switch_cpus: Raw Gem5 Running in Cycle:        39500000, Inst:        56642357
2188410432500: system.switch_cpus: Raw Gem5 Running in Cycle:        39600000, Inst:        56782777
2188460445500: system.switch_cpus: Raw Gem5 Running in Cycle:        39700000, Inst:        56925977
2188510456500: system.switch_cpus: Raw Gem5 Running in Cycle:        39800000, Inst:        57069645
2188560480000: system.switch_cpus: Raw Gem5 Running in Cycle:        39900000, Inst:        57196541
2188610495500: system.switch_cpus: Raw Gem5 Running in Cycle:        40000000, Inst:        57323202
2188660509500: system.switch_cpus: Raw Gem5 Running in Cycle:        40100000, Inst:        57449710
2188710535000: system.switch_cpus: Raw Gem5 Running in Cycle:        40200000, Inst:        57603321
2188760546000: system.switch_cpus: Raw Gem5 Running in Cycle:        40300000, Inst:        57754787
2188810563000: system.switch_cpus: Raw Gem5 Running in Cycle:        40400000, Inst:        57896701
2188860570000: system.switch_cpus: Raw Gem5 Running in Cycle:        40500000, Inst:        58036643
2188910607000: system.switch_cpus: Raw Gem5 Running in Cycle:        40600000, Inst:        58162607
2188960612000: system.switch_cpus: Raw Gem5 Running in Cycle:        40700000, Inst:        58294759
2189010635000: system.switch_cpus: Raw Gem5 Running in Cycle:        40800000, Inst:        58433285
2189060656500: system.switch_cpus: Raw Gem5 Running in Cycle:        40900000, Inst:        58577302
2189110665500: system.switch_cpus: Raw Gem5 Running in Cycle:        41000000, Inst:        58724944
2189160677500: system.switch_cpus: Raw Gem5 Running in Cycle:        41100000, Inst:        58867138
2189210689500: system.switch_cpus: Raw Gem5 Running in Cycle:        41200000, Inst:        59030442
2189260704000: system.switch_cpus: Raw Gem5 Running in Cycle:        41300000, Inst:        59167188
2189310717500: system.switch_cpus: Raw Gem5 Running in Cycle:        41400000, Inst:        59327321
2189360728500: system.switch_cpus: Raw Gem5 Running in Cycle:        41500000, Inst:        59465153
2189410747500: system.switch_cpus: Raw Gem5 Running in Cycle:        41600000, Inst:        59594070
2189460755000: system.switch_cpus: Raw Gem5 Running in Cycle:        41700000, Inst:        59721695
2189510767000: system.switch_cpus: Raw Gem5 Running in Cycle:        41800000, Inst:        59843898
2189560791000: system.switch_cpus: Raw Gem5 Running in Cycle:        41900000, Inst:        59980694
2189610805000: system.switch_cpus: Raw Gem5 Running in Cycle:        42000000, Inst:        60113914
2189660837500: system.switch_cpus: Raw Gem5 Running in Cycle:        42100000, Inst:        60252228
2189710862000: system.switch_cpus: Raw Gem5 Running in Cycle:        42200000, Inst:        60418566
2189760893500: system.switch_cpus: Raw Gem5 Running in Cycle:        42300000, Inst:        60553226
2189810916000: system.switch_cpus: Raw Gem5 Running in Cycle:        42400000, Inst:        60689027
2189860925500: system.switch_cpus: Raw Gem5 Running in Cycle:        42500000, Inst:        60814408
2189910948000: system.switch_cpus: Raw Gem5 Running in Cycle:        42600000, Inst:        60955478
2189960975000: system.switch_cpus: Raw Gem5 Running in Cycle:        42700000, Inst:        61097920
2190011007000: system.switch_cpus: Raw Gem5 Running in Cycle:        42800000, Inst:        61222463
2190061024500: system.switch_cpus: Raw Gem5 Running in Cycle:        42900000, Inst:        61353773
2190111036500: system.switch_cpus: Raw Gem5 Running in Cycle:        43000000, Inst:        61491182
2190161081500: system.switch_cpus: Raw Gem5 Running in Cycle:        43100000, Inst:        61625986
2190211097500: system.switch_cpus: Raw Gem5 Running in Cycle:        43200000, Inst:        61770542
2190261100000: system.switch_cpus: Raw Gem5 Running in Cycle:        43300000, Inst:        61919588
2190311169500: system.switch_cpus: Raw Gem5 Running in Cycle:        43400000, Inst:        62054709
2190361183000: system.switch_cpus: Raw Gem5 Running in Cycle:        43500000, Inst:        62190572
2190411192500: system.switch_cpus: Raw Gem5 Running in Cycle:        43600000, Inst:        62318415
2190461193500: system.switch_cpus: Raw Gem5 Running in Cycle:        43700000, Inst:        62455703
2190511201000: system.switch_cpus: Raw Gem5 Running in Cycle:        43800000, Inst:        62598347
2190561213000: system.switch_cpus: Raw Gem5 Running in Cycle:        43900000, Inst:        62734030
2190611243000: system.switch_cpus: Raw Gem5 Running in Cycle:        44000000, Inst:        62866882
2190661271500: system.switch_cpus: Raw Gem5 Running in Cycle:        44100000, Inst:        63003201
2190711280000: system.switch_cpus: Raw Gem5 Running in Cycle:        44200000, Inst:        63147730
2190761294500: system.switch_cpus: Raw Gem5 Running in Cycle:        44300000, Inst:        63292459
2190811307500: system.switch_cpus: Raw Gem5 Running in Cycle:        44400000, Inst:        63433625
2190861341500: system.switch_cpus: Raw Gem5 Running in Cycle:        44500000, Inst:        63576265
2190911360500: system.switch_cpus: Raw Gem5 Running in Cycle:        44600000, Inst:        63711246
2190961370000: system.switch_cpus: Raw Gem5 Running in Cycle:        44700000, Inst:        63845300
2191011380000: system.switch_cpus: Raw Gem5 Running in Cycle:        44800000, Inst:        63974454
2191061388500: system.switch_cpus: Raw Gem5 Running in Cycle:        44900000, Inst:        64117989
2191111401500: system.switch_cpus: Raw Gem5 Running in Cycle:        45000000, Inst:        64263195
2191161410000: system.switch_cpus: Raw Gem5 Running in Cycle:        45100000, Inst:        64409712
2191211414500: system.switch_cpus: Raw Gem5 Running in Cycle:        45200000, Inst:        64559590
2191261425500: system.switch_cpus: Raw Gem5 Running in Cycle:        45300000, Inst:        64706997
2191311435500: system.switch_cpus: Raw Gem5 Running in Cycle:        45400000, Inst:        64844991
2191361455500: system.switch_cpus: Raw Gem5 Running in Cycle:        45500000, Inst:        64975911
2191411479000: system.switch_cpus: Raw Gem5 Running in Cycle:        45600000, Inst:        65120288
2191461504500: system.switch_cpus: Raw Gem5 Running in Cycle:        45700000, Inst:        65260061
2191511539500: system.switch_cpus: Raw Gem5 Running in Cycle:        45800000, Inst:        65410277
2191561559500: system.switch_cpus: Raw Gem5 Running in Cycle:        45900000, Inst:        65563232
2191611578000: system.switch_cpus: Raw Gem5 Running in Cycle:        46000000, Inst:        65725800
2191661585500: system.switch_cpus: Raw Gem5 Running in Cycle:        46100000, Inst:        65875427
2191711629500: system.switch_cpus: Raw Gem5 Running in Cycle:        46200000, Inst:        66044089
2191761692500: system.switch_cpus: Raw Gem5 Running in Cycle:        46300000, Inst:        66227320
2191811730500: system.switch_cpus: Raw Gem5 Running in Cycle:        46400000, Inst:        66399060
2191861769500: system.switch_cpus: Raw Gem5 Running in Cycle:        46500000, Inst:        66554475
2191911816000: system.switch_cpus: Raw Gem5 Running in Cycle:        46600000, Inst:        66713379
2191961858000: system.switch_cpus: Raw Gem5 Running in Cycle:        46700000, Inst:        66866042
2192011881500: system.switch_cpus: Raw Gem5 Running in Cycle:        46800000, Inst:        67056913
2192061900000: system.switch_cpus: Raw Gem5 Running in Cycle:        46900000, Inst:        67192670
2192111900000: system.switch_cpus: Raw Gem5 Running in Cycle:        47000000, Inst:        67327827
2192161904000: system.switch_cpus: Raw Gem5 Running in Cycle:        47100000, Inst:        67467718
2192211926500: system.switch_cpus: Raw Gem5 Running in Cycle:        47200000, Inst:        67612279
2192261960000: system.switch_cpus: Raw Gem5 Running in Cycle:        47300000, Inst:        67753432
2192311983500: system.switch_cpus: Raw Gem5 Running in Cycle:        47400000, Inst:        67927079
2192362017000: system.switch_cpus: Raw Gem5 Running in Cycle:        47500000, Inst:        68086597
2192412038500: system.switch_cpus: Raw Gem5 Running in Cycle:        47600000, Inst:        68270554
2192462093500: system.switch_cpus: Raw Gem5 Running in Cycle:        47700000, Inst:        68439274
2192512109500: system.switch_cpus: Raw Gem5 Running in Cycle:        47800000, Inst:        68599468
2192562136000: system.switch_cpus: Raw Gem5 Running in Cycle:        47900000, Inst:        68740488
2192612155500: system.switch_cpus: Raw Gem5 Running in Cycle:        48000000, Inst:        68878426
2192662199500: system.switch_cpus: Raw Gem5 Running in Cycle:        48100000, Inst:        69020942
2192712216000: system.switch_cpus: Raw Gem5 Running in Cycle:        48200000, Inst:        69166045
2192762257000: system.switch_cpus: Raw Gem5 Running in Cycle:        48300000, Inst:        69319724
2192812270500: system.switch_cpus: Raw Gem5 Running in Cycle:        48400000, Inst:        69482676
2192862284500: system.switch_cpus: Raw Gem5 Running in Cycle:        48500000, Inst:        69602678
2192912298500: system.switch_cpus: Raw Gem5 Running in Cycle:        48600000, Inst:        69755226
2192962324000: system.switch_cpus: Raw Gem5 Running in Cycle:        48700000, Inst:        69918644
2193012364000: system.switch_cpus: Raw Gem5 Running in Cycle:        48800000, Inst:        70075221
2193062389000: system.switch_cpus: Raw Gem5 Running in Cycle:        48900000, Inst:        70235955
2193112418500: system.switch_cpus: Raw Gem5 Running in Cycle:        49000000, Inst:        70382566
2193162443000: system.switch_cpus: Raw Gem5 Running in Cycle:        49100000, Inst:        70540395
2193212465000: system.switch_cpus: Raw Gem5 Running in Cycle:        49200000, Inst:        70712718
2193262482500: system.switch_cpus: Raw Gem5 Running in Cycle:        49300000, Inst:        70883209
2193312500500: system.switch_cpus: Raw Gem5 Running in Cycle:        49400000, Inst:        71030567
2193362526000: system.switch_cpus: Raw Gem5 Running in Cycle:        49500000, Inst:        71195009
2193412547000: system.switch_cpus: Raw Gem5 Running in Cycle:        49600000, Inst:        71340508
2193462548000: system.switch_cpus: Raw Gem5 Running in Cycle:        49700000, Inst:        71474616
2193512556500: system.switch_cpus: Raw Gem5 Running in Cycle:        49800000, Inst:        71607324
2193562561000: system.switch_cpus: Raw Gem5 Running in Cycle:        49900000, Inst:        71744903
2193612563000: system.switch_cpus: Raw Gem5 Running in Cycle:        50000000, Inst:        71880348
2193662568000: system.switch_cpus: Raw Gem5 Running in Cycle:        50100000, Inst:        72019616
2193712571500: system.switch_cpus: Raw Gem5 Running in Cycle:        50200000, Inst:        72156963
2193762585500: system.switch_cpus: Raw Gem5 Running in Cycle:        50300000, Inst:        72313287
2193812604000: system.switch_cpus: Raw Gem5 Running in Cycle:        50400000, Inst:        72496193
2193862640500: system.switch_cpus: Raw Gem5 Running in Cycle:        50500000, Inst:        72649827
2193912658500: system.switch_cpus: Raw Gem5 Running in Cycle:        50600000, Inst:        72768276
2193962674500: system.switch_cpus: Raw Gem5 Running in Cycle:        50700000, Inst:        72892942
2194012692000: system.switch_cpus: Raw Gem5 Running in Cycle:        50800000, Inst:        73031372
2194062707000: system.switch_cpus: Raw Gem5 Running in Cycle:        50900000, Inst:        73157852
2194112724500: system.switch_cpus: Raw Gem5 Running in Cycle:        51000000, Inst:        73295722
2194162741000: system.switch_cpus: Raw Gem5 Running in Cycle:        51100000, Inst:        73420201
2194212757500: system.switch_cpus: Raw Gem5 Running in Cycle:        51200000, Inst:        73551507
2194262771500: system.switch_cpus: Raw Gem5 Running in Cycle:        51300000, Inst:        73710265
2194312795500: system.switch_cpus: Raw Gem5 Running in Cycle:        51400000, Inst:        73864547
2194362804000: system.switch_cpus: Raw Gem5 Running in Cycle:        51500000, Inst:        74006147
2194412826500: system.switch_cpus: Raw Gem5 Running in Cycle:        51600000, Inst:        74136298
2194462838000: system.switch_cpus: Raw Gem5 Running in Cycle:        51700000, Inst:        74267252
2194512854500: system.switch_cpus: Raw Gem5 Running in Cycle:        51800000, Inst:        74408405
2194562883000: system.switch_cpus: Raw Gem5 Running in Cycle:        51900000, Inst:        74547763
2194612902000: system.switch_cpus: Raw Gem5 Running in Cycle:        52000000, Inst:        74704684
2194662909500: system.switch_cpus: Raw Gem5 Running in Cycle:        52100000, Inst:        74850857
2194712934500: system.switch_cpus: Raw Gem5 Running in Cycle:        52200000, Inst:        74985603
2194762948500: system.switch_cpus: Raw Gem5 Running in Cycle:        52300000, Inst:        75133593
2194812983000: system.switch_cpus: Raw Gem5 Running in Cycle:        52400000, Inst:        75279115
2194863006500: system.switch_cpus: Raw Gem5 Running in Cycle:        52500000, Inst:        75403950
2194913026500: system.switch_cpus: Raw Gem5 Running in Cycle:        52600000, Inst:        75547239
2194963040500: system.switch_cpus: Raw Gem5 Running in Cycle:        52700000, Inst:        75675781
2195013075500: system.switch_cpus: Raw Gem5 Running in Cycle:        52800000, Inst:        75805720
2195063116500: system.switch_cpus: Raw Gem5 Running in Cycle:        52900000, Inst:        75959202
2195113134500: system.switch_cpus: Raw Gem5 Running in Cycle:        53000000, Inst:        76101275
2195163153000: system.switch_cpus: Raw Gem5 Running in Cycle:        53100000, Inst:        76222602
2195213170500: system.switch_cpus: Raw Gem5 Running in Cycle:        53200000, Inst:        76361936
2195263187500: system.switch_cpus: Raw Gem5 Running in Cycle:        53300000, Inst:        76499046
2195313191000: system.switch_cpus: Raw Gem5 Running in Cycle:        53400000, Inst:        76638051
2195363202000: system.switch_cpus: Raw Gem5 Running in Cycle:        53500000, Inst:        76768552
2195413244000: system.switch_cpus: Raw Gem5 Running in Cycle:        53600000, Inst:        76899438
2195463265500: system.switch_cpus: Raw Gem5 Running in Cycle:        53700000, Inst:        77052903
2195513274000: system.switch_cpus: Raw Gem5 Running in Cycle:        53800000, Inst:        77211358
2195563298500: system.switch_cpus: Raw Gem5 Running in Cycle:        53900000, Inst:        77338544
2195613314500: system.switch_cpus: Raw Gem5 Running in Cycle:        54000000, Inst:        77477740
2195663342500: system.switch_cpus: Raw Gem5 Running in Cycle:        54100000, Inst:        77630789
2195713352500: system.switch_cpus: Raw Gem5 Running in Cycle:        54200000, Inst:        77763360
2195763369500: system.switch_cpus: Raw Gem5 Running in Cycle:        54300000, Inst:        77895884
2195813387500: system.switch_cpus: Raw Gem5 Running in Cycle:        54400000, Inst:        78037149
2195863405000: system.switch_cpus: Raw Gem5 Running in Cycle:        54500000, Inst:        78167524
2195913435500: system.switch_cpus: Raw Gem5 Running in Cycle:        54600000, Inst:        78301261
2195963464000: system.switch_cpus: Raw Gem5 Running in Cycle:        54700000, Inst:        78450793
2196013477500: system.switch_cpus: Raw Gem5 Running in Cycle:        54800000, Inst:        78585643
2196063500500: system.switch_cpus: Raw Gem5 Running in Cycle:        54900000, Inst:        78723417
2196113519000: system.switch_cpus: Raw Gem5 Running in Cycle:        55000000, Inst:        78867987
2196163553000: system.switch_cpus: Raw Gem5 Running in Cycle:        55100000, Inst:        79005960
2196213582500: system.switch_cpus: Raw Gem5 Running in Cycle:        55200000, Inst:        79148348
2196263607500: system.switch_cpus: Raw Gem5 Running in Cycle:        55300000, Inst:        79297172
2196313624500: system.switch_cpus: Raw Gem5 Running in Cycle:        55400000, Inst:        79429635
2196363664500: system.switch_cpus: Raw Gem5 Running in Cycle:        55500000, Inst:        79586682
2196413670000: system.switch_cpus: Raw Gem5 Running in Cycle:        55600000, Inst:        79745340
2196463699500: system.switch_cpus: Raw Gem5 Running in Cycle:        55700000, Inst:        79881755
2196513707500: system.switch_cpus: Raw Gem5 Running in Cycle:        55800000, Inst:        80037202
2196563745000: system.switch_cpus: Raw Gem5 Running in Cycle:        55900000, Inst:        80179731
2196613786500: system.switch_cpus: Raw Gem5 Running in Cycle:        56000000, Inst:        80326802
2196663800000: system.switch_cpus: Raw Gem5 Running in Cycle:        56100000, Inst:        80469995
2196713813500: system.switch_cpus: Raw Gem5 Running in Cycle:        56200000, Inst:        80607797
2196763826500: system.switch_cpus: Raw Gem5 Running in Cycle:        56300000, Inst:        80751968
2196813833500: system.switch_cpus: Raw Gem5 Running in Cycle:        56400000, Inst:        80892822
2196863858000: system.switch_cpus: Raw Gem5 Running in Cycle:        56500000, Inst:        81037955
2196913869500: system.switch_cpus: Raw Gem5 Running in Cycle:        56600000, Inst:        81176704
2196963878000: system.switch_cpus: Raw Gem5 Running in Cycle:        56700000, Inst:        81324536
2197013879500: system.switch_cpus: Raw Gem5 Running in Cycle:        56800000, Inst:        81459886
2197063914500: system.switch_cpus: Raw Gem5 Running in Cycle:        56900000, Inst:        81604935
2197113958000: system.switch_cpus: Raw Gem5 Running in Cycle:        57000000, Inst:        81746928
2197164005000: system.switch_cpus: Raw Gem5 Running in Cycle:        57100000, Inst:        81895931
2197214039500: system.switch_cpus: Raw Gem5 Running in Cycle:        57200000, Inst:        82062234
2197264069500: system.switch_cpus: Raw Gem5 Running in Cycle:        57300000, Inst:        82230132
2197314097500: system.switch_cpus: Raw Gem5 Running in Cycle:        57400000, Inst:        82386448
2197364118500: system.switch_cpus: Raw Gem5 Running in Cycle:        57500000, Inst:        82554217
2197414146500: system.switch_cpus: Raw Gem5 Running in Cycle:        57600000, Inst:        82722038
2197464163000: system.switch_cpus: Raw Gem5 Running in Cycle:        57700000, Inst:        82872660
2197514166000: system.switch_cpus: Raw Gem5 Running in Cycle:        57800000, Inst:        83022013
2197564177500: system.switch_cpus: Raw Gem5 Running in Cycle:        57900000, Inst:        83174107
2197614201500: system.switch_cpus: Raw Gem5 Running in Cycle:        58000000, Inst:        83314966
2197664218000: system.switch_cpus: Raw Gem5 Running in Cycle:        58100000, Inst:        83449396
2197714253500: system.switch_cpus: Raw Gem5 Running in Cycle:        58200000, Inst:        83596328
2197764272000: system.switch_cpus: Raw Gem5 Running in Cycle:        58300000, Inst:        83728935
2197814301500: system.switch_cpus: Raw Gem5 Running in Cycle:        58400000, Inst:        83888876
2197864327000: system.switch_cpus: Raw Gem5 Running in Cycle:        58500000, Inst:        84034146
2197914337500: system.switch_cpus: Raw Gem5 Running in Cycle:        58600000, Inst:        84159064
2197964359500: system.switch_cpus: Raw Gem5 Running in Cycle:        58700000, Inst:        84313241
2198014370000: system.switch_cpus: Raw Gem5 Running in Cycle:        58800000, Inst:        84451853
2198064378500: system.switch_cpus: Raw Gem5 Running in Cycle:        58900000, Inst:        84592169
2198114405000: system.switch_cpus: Raw Gem5 Running in Cycle:        59000000, Inst:        84740720
2198164412500: system.switch_cpus: Raw Gem5 Running in Cycle:        59100000, Inst:        84884143
2198214423500: system.switch_cpus: Raw Gem5 Running in Cycle:        59200000, Inst:        85026657
2198264435000: system.switch_cpus: Raw Gem5 Running in Cycle:        59300000, Inst:        85179500
2198314462000: system.switch_cpus: Raw Gem5 Running in Cycle:        59400000, Inst:        85317347
2198364486000: system.switch_cpus: Raw Gem5 Running in Cycle:        59500000, Inst:        85463930
2198414495500: system.switch_cpus: Raw Gem5 Running in Cycle:        59600000, Inst:        85612396
2198464515500: system.switch_cpus: Raw Gem5 Running in Cycle:        59700000, Inst:        85772446
2198514552500: system.switch_cpus: Raw Gem5 Running in Cycle:        59800000, Inst:        85948051
2198564574000: system.switch_cpus: Raw Gem5 Running in Cycle:        59900000, Inst:        86095911
2198614603000: system.switch_cpus: Raw Gem5 Running in Cycle:        60000000, Inst:        86246829
2198664630500: system.switch_cpus: Raw Gem5 Running in Cycle:        60100000, Inst:        86410996
2198714663500: system.switch_cpus: Raw Gem5 Running in Cycle:        60200000, Inst:        86580532
2198764694000: system.switch_cpus: Raw Gem5 Running in Cycle:        60300000, Inst:        86730751
2198814717500: system.switch_cpus: Raw Gem5 Running in Cycle:        60400000, Inst:        86911079
2198864742000: system.switch_cpus: Raw Gem5 Running in Cycle:        60500000, Inst:        87073747
2198914782000: system.switch_cpus: Raw Gem5 Running in Cycle:        60600000, Inst:        87233190
2198964797500: system.switch_cpus: Raw Gem5 Running in Cycle:        60700000, Inst:        87404584
2199014824500: system.switch_cpus: Raw Gem5 Running in Cycle:        60800000, Inst:        87558762
2199064844000: system.switch_cpus: Raw Gem5 Running in Cycle:        60900000, Inst:        87697432
2199114847000: system.switch_cpus: Raw Gem5 Running in Cycle:        61000000, Inst:        87838694
2199164873000: system.switch_cpus: Raw Gem5 Running in Cycle:        61100000, Inst:        87976431
2199214894500: system.switch_cpus: Raw Gem5 Running in Cycle:        61200000, Inst:        88128609
2199264910000: system.switch_cpus: Raw Gem5 Running in Cycle:        61300000, Inst:        88295761
2199314939500: system.switch_cpus: Raw Gem5 Running in Cycle:        61400000, Inst:        88464285
2199364984500: system.switch_cpus: Raw Gem5 Running in Cycle:        61500000, Inst:        88631070
2199415004000: system.switch_cpus: Raw Gem5 Running in Cycle:        61600000, Inst:        88765869
2199465025500: system.switch_cpus: Raw Gem5 Running in Cycle:        61700000, Inst:        88888126
2199515044500: system.switch_cpus: Raw Gem5 Running in Cycle:        61800000, Inst:        89007918
2199565055000: system.switch_cpus: Raw Gem5 Running in Cycle:        61900000, Inst:        89127483
2199615062000: system.switch_cpus: Raw Gem5 Running in Cycle:        62000000, Inst:        89248700
2199665072000: system.switch_cpus: Raw Gem5 Running in Cycle:        62100000, Inst:        89380446
2199715084500: system.switch_cpus: Raw Gem5 Running in Cycle:        62200000, Inst:        89528003
2199765106000: system.switch_cpus: Raw Gem5 Running in Cycle:        62300000, Inst:        89643919
2199815123000: system.switch_cpus: Raw Gem5 Running in Cycle:        62400000, Inst:        89783972
2199865140500: system.switch_cpus: Raw Gem5 Running in Cycle:        62500000, Inst:        89912035
2199915169000: system.switch_cpus: Raw Gem5 Running in Cycle:        62600000, Inst:        90069428
2199965197000: system.switch_cpus: Raw Gem5 Running in Cycle:        62700000, Inst:        90194033
2200015215500: system.switch_cpus: Raw Gem5 Running in Cycle:        62800000, Inst:        90317665
2200065251000: system.switch_cpus: Raw Gem5 Running in Cycle:        62900000, Inst:        90482760
2200115267500: system.switch_cpus: Raw Gem5 Running in Cycle:        63000000, Inst:        90647261
2200165270000: system.switch_cpus: Raw Gem5 Running in Cycle:        63100000, Inst:        90789712
2200215271000: system.switch_cpus: Raw Gem5 Running in Cycle:        63200000, Inst:        90934968
2200265272500: system.switch_cpus: Raw Gem5 Running in Cycle:        63300000, Inst:        91081513
2200315275500: system.switch_cpus: Raw Gem5 Running in Cycle:        63400000, Inst:        91230777
2200365288500: system.switch_cpus: Raw Gem5 Running in Cycle:        63500000, Inst:        91377579
2200415290000: system.switch_cpus: Raw Gem5 Running in Cycle:        63600000, Inst:        91521057
2200465299500: system.switch_cpus: Raw Gem5 Running in Cycle:        63700000, Inst:        91661265
2200515313000: system.switch_cpus: Raw Gem5 Running in Cycle:        63800000, Inst:        91829707
2200565320000: system.switch_cpus: Raw Gem5 Running in Cycle:        63900000, Inst:        91957549
2200615325000: system.switch_cpus: Raw Gem5 Running in Cycle:        64000000, Inst:        92090625
2200665326000: system.switch_cpus: Raw Gem5 Running in Cycle:        64100000, Inst:        92231012
2200715338000: system.switch_cpus: Raw Gem5 Running in Cycle:        64200000, Inst:        92366431
2200765352500: system.switch_cpus: Raw Gem5 Running in Cycle:        64300000, Inst:        92496870
2200815384000: system.switch_cpus: Raw Gem5 Running in Cycle:        64400000, Inst:        92639949
2200865390500: system.switch_cpus: Raw Gem5 Running in Cycle:        64500000, Inst:        92798067
2200915401000: system.switch_cpus: Raw Gem5 Running in Cycle:        64600000, Inst:        92955891
2200965411000: system.switch_cpus: Raw Gem5 Running in Cycle:        64700000, Inst:        93090193
2201015422500: system.switch_cpus: Raw Gem5 Running in Cycle:        64800000, Inst:        93232779
2201065444000: system.switch_cpus: Raw Gem5 Running in Cycle:        64900000, Inst:        93372851
2201115454000: system.switch_cpus: Raw Gem5 Running in Cycle:        65000000, Inst:        93512558
2201165474000: system.switch_cpus: Raw Gem5 Running in Cycle:        65100000, Inst:        93661685
2201215504500: system.switch_cpus: Raw Gem5 Running in Cycle:        65200000, Inst:        93818219
2201265545000: system.switch_cpus: Raw Gem5 Running in Cycle:        65300000, Inst:        93981591
2201315583000: system.switch_cpus: Raw Gem5 Running in Cycle:        65400000, Inst:        94136371
2201365608000: system.switch_cpus: Raw Gem5 Running in Cycle:        65500000, Inst:        94315483
2201415638500: system.switch_cpus: Raw Gem5 Running in Cycle:        65600000, Inst:        94482862
2201465664000: system.switch_cpus: Raw Gem5 Running in Cycle:        65700000, Inst:        94643479
2201515693500: system.switch_cpus: Raw Gem5 Running in Cycle:        65800000, Inst:        94812852
2201565705000: system.switch_cpus: Raw Gem5 Running in Cycle:        65900000, Inst:        94961109
2201615717000: system.switch_cpus: Raw Gem5 Running in Cycle:        66000000, Inst:        95109417
2201665729500: system.switch_cpus: Raw Gem5 Running in Cycle:        66100000, Inst:        95259558
2201715756500: system.switch_cpus: Raw Gem5 Running in Cycle:        66200000, Inst:        95438179
2201765785500: system.switch_cpus: Raw Gem5 Running in Cycle:        66300000, Inst:        95619101
2201815809500: system.switch_cpus: Raw Gem5 Running in Cycle:        66400000, Inst:        95789750
2201865834000: system.switch_cpus: Raw Gem5 Running in Cycle:        66500000, Inst:        95960966
2201915874000: system.switch_cpus: Raw Gem5 Running in Cycle:        66600000, Inst:        96103691
2201965902500: system.switch_cpus: Raw Gem5 Running in Cycle:        66700000, Inst:        96269998
2202015935500: system.switch_cpus: Raw Gem5 Running in Cycle:        66800000, Inst:        96448345
2202065971000: system.switch_cpus: Raw Gem5 Running in Cycle:        66900000, Inst:        96609029
2202115989000: system.switch_cpus: Raw Gem5 Running in Cycle:        67000000, Inst:        96776344
2202166012500: system.switch_cpus: Raw Gem5 Running in Cycle:        67100000, Inst:        96913039
2202216040500: system.switch_cpus: Raw Gem5 Running in Cycle:        67200000, Inst:        97061872
2202266059000: system.switch_cpus: Raw Gem5 Running in Cycle:        67300000, Inst:        97234395
2202316083000: system.switch_cpus: Raw Gem5 Running in Cycle:        67400000, Inst:        97388125
2202366104000: system.switch_cpus: Raw Gem5 Running in Cycle:        67500000, Inst:        97536039
2202416124500: system.switch_cpus: Raw Gem5 Running in Cycle:        67600000, Inst:        97668809
2202466159000: system.switch_cpus: Raw Gem5 Running in Cycle:        67700000, Inst:        97818966
2202516180000: system.switch_cpus: Raw Gem5 Running in Cycle:        67800000, Inst:        97955943
2202566209500: system.switch_cpus: Raw Gem5 Running in Cycle:        67900000, Inst:        98092442
2202616230500: system.switch_cpus: Raw Gem5 Running in Cycle:        68000000, Inst:        98243575
2202666245000: system.switch_cpus: Raw Gem5 Running in Cycle:        68100000, Inst:        98401838
2202716282000: system.switch_cpus: Raw Gem5 Running in Cycle:        68200000, Inst:        98546289
2202766339000: system.switch_cpus: Raw Gem5 Running in Cycle:        68300000, Inst:        98706925
2202816429500: system.switch_cpus: Raw Gem5 Running in Cycle:        68400000, Inst:        98848740
2202866453000: system.switch_cpus: Raw Gem5 Running in Cycle:        68500000, Inst:        98983141
2202916498500: system.switch_cpus: Raw Gem5 Running in Cycle:        68600000, Inst:        99118009
2202966517500: system.switch_cpus: Raw Gem5 Running in Cycle:        68700000, Inst:        99250389
2203016554500: system.switch_cpus: Raw Gem5 Running in Cycle:        68800000, Inst:        99390598
2203066581500: system.switch_cpus: Raw Gem5 Running in Cycle:        68900000, Inst:        99513446
2203116607500: system.switch_cpus: Raw Gem5 Running in Cycle:        69000000, Inst:        99661367
2203166632000: system.switch_cpus: Raw Gem5 Running in Cycle:        69100000, Inst:        99790361
2203216635000: system.switch_cpus: Raw Gem5 Running in Cycle:        69200000, Inst:        99950813
Exiting @ tick 2203232138000 because a thread reached the max instruction count
end time:(year-mon-day hour-minute-second)19-03-30 21-19-48
