
---------- Begin Simulation Statistics ----------
final_tick                               2203232138000                       # Number of ticks from beginning of simulation (restored from checkpoints and never reset)
host_inst_rate                                 212940                       # Simulator instruction rate (inst/s)
host_mem_usage                                8535820                       # Number of bytes of host memory used
host_op_rate                                   212940                       # Simulator op (including micro ops) rate (op/s)
host_seconds                                   469.62                       # Real time elapsed on the host
host_tick_rate                               73808885                       # Simulator tick rate (ticks/s)
sim_freq                                 1000000000000                       # Frequency of simulated ticks
sim_insts                                   100000020                       # Number of instructions simulated
sim_ops                                     100000020                       # Number of ops (including micro ops) simulated
sim_seconds                                  0.034662                       # Number of seconds simulated
sim_ticks                                 34661818500                       # Number of ticks simulated
system.clk_domain.clock                          1000                       # Clock period in ticks
system.cpu.Branches                                 2                       # Number of branches fetched
system.cpu.committedInsts                          20                       # Number of instructions committed
system.cpu.committedOps                            20                       # Number of ops (including micro ops) committed
system.cpu.dcache.ReadReq_accesses::.cpu.data            1                       # number of ReadReq accesses(hits+misses)
system.cpu.dcache.ReadReq_accesses::.switch_cpus.data     30123653                       # number of ReadReq accesses(hits+misses)
system.cpu.dcache.ReadReq_accesses::total     30123654                       # number of ReadReq accesses(hits+misses)
system.cpu.dcache.ReadReq_avg_miss_latency::.switch_cpus.data 45754.780247                       # average ReadReq miss latency
system.cpu.dcache.ReadReq_avg_miss_latency::total 45754.485777                       # average ReadReq miss latency
system.cpu.dcache.ReadReq_avg_mshr_miss_latency::.switch_cpus.data 40576.104704                       # average ReadReq mshr miss latency
system.cpu.dcache.ReadReq_avg_mshr_miss_latency::total 40576.104704                       # average ReadReq mshr miss latency
system.cpu.dcache.ReadReq_hits::.switch_cpus.data     29968274                       # number of ReadReq hits
system.cpu.dcache.ReadReq_hits::total        29968274                       # number of ReadReq hits
system.cpu.dcache.ReadReq_miss_latency::.switch_cpus.data   7109332000                       # number of ReadReq miss cycles
system.cpu.dcache.ReadReq_miss_latency::total   7109332000                       # number of ReadReq miss cycles
system.cpu.dcache.ReadReq_miss_rate::.cpu.data            1                       # miss rate for ReadReq accesses
system.cpu.dcache.ReadReq_miss_rate::.switch_cpus.data     0.005158                       # miss rate for ReadReq accesses
system.cpu.dcache.ReadReq_miss_rate::total     0.005158                       # miss rate for ReadReq accesses
system.cpu.dcache.ReadReq_misses::.cpu.data            1                       # number of ReadReq misses
system.cpu.dcache.ReadReq_misses::.switch_cpus.data       155379                       # number of ReadReq misses
system.cpu.dcache.ReadReq_misses::total        155380                       # number of ReadReq misses
system.cpu.dcache.ReadReq_mshr_hits::.switch_cpus.data        59222                       # number of ReadReq MSHR hits
system.cpu.dcache.ReadReq_mshr_hits::total        59222                       # number of ReadReq MSHR hits
system.cpu.dcache.ReadReq_mshr_miss_latency::.switch_cpus.data   3901676500                       # number of ReadReq MSHR miss cycles
system.cpu.dcache.ReadReq_mshr_miss_latency::total   3901676500                       # number of ReadReq MSHR miss cycles
system.cpu.dcache.ReadReq_mshr_miss_rate::.switch_cpus.data     0.003192                       # mshr miss rate for ReadReq accesses
system.cpu.dcache.ReadReq_mshr_miss_rate::total     0.003192                       # mshr miss rate for ReadReq accesses
system.cpu.dcache.ReadReq_mshr_misses::.switch_cpus.data        96157                       # number of ReadReq MSHR misses
system.cpu.dcache.ReadReq_mshr_misses::total        96157                       # number of ReadReq MSHR misses
system.cpu.dcache.WriteReq_accesses::.switch_cpus.data      7022305                       # number of WriteReq accesses(hits+misses)
system.cpu.dcache.WriteReq_accesses::total      7022305                       # number of WriteReq accesses(hits+misses)
system.cpu.dcache.WriteReq_avg_miss_latency::.switch_cpus.data 14769.285903                       # average WriteReq miss latency
system.cpu.dcache.WriteReq_avg_miss_latency::total 14769.285903                       # average WriteReq miss latency
system.cpu.dcache.WriteReq_avg_mshr_miss_latency::.switch_cpus.data 16534.984674                       # average WriteReq mshr miss latency
system.cpu.dcache.WriteReq_avg_mshr_miss_latency::total 16534.984674                       # average WriteReq mshr miss latency
system.cpu.dcache.WriteReq_hits::.switch_cpus.data      6809876                       # number of WriteReq hits
system.cpu.dcache.WriteReq_hits::total        6809876                       # number of WriteReq hits
system.cpu.dcache.WriteReq_miss_latency::.switch_cpus.data   3137424635                       # number of WriteReq miss cycles
system.cpu.dcache.WriteReq_miss_latency::total   3137424635                       # number of WriteReq miss cycles
system.cpu.dcache.WriteReq_miss_rate::.switch_cpus.data     0.030251                       # miss rate for WriteReq accesses
system.cpu.dcache.WriteReq_miss_rate::total     0.030251                       # miss rate for WriteReq accesses
system.cpu.dcache.WriteReq_misses::.switch_cpus.data       212429                       # number of WriteReq misses
system.cpu.dcache.WriteReq_misses::total       212429                       # number of WriteReq misses
system.cpu.dcache.WriteReq_mshr_hits::.switch_cpus.data       166952                       # number of WriteReq MSHR hits
system.cpu.dcache.WriteReq_mshr_hits::total       166952                       # number of WriteReq MSHR hits
system.cpu.dcache.WriteReq_mshr_miss_latency::.switch_cpus.data    751961498                       # number of WriteReq MSHR miss cycles
system.cpu.dcache.WriteReq_mshr_miss_latency::total    751961498                       # number of WriteReq MSHR miss cycles
system.cpu.dcache.WriteReq_mshr_miss_rate::.switch_cpus.data     0.006476                       # mshr miss rate for WriteReq accesses
system.cpu.dcache.WriteReq_mshr_miss_rate::total     0.006476                       # mshr miss rate for WriteReq accesses
system.cpu.dcache.WriteReq_mshr_misses::.switch_cpus.data        45477                       # number of WriteReq MSHR misses
system.cpu.dcache.WriteReq_mshr_misses::total        45477                       # number of WriteReq MSHR misses
system.cpu.dcache.avg_blocked_cycles::no_mshrs    17.188646                       # average number of cycles each access was blocked
system.cpu.dcache.avg_blocked_cycles::no_targets    47.666667                       # average number of cycles each access was blocked
system.cpu.dcache.blocked::no_mshrs              1145                       # number of cycles access was blocked
system.cpu.dcache.blocked::no_targets               3                       # number of cycles access was blocked
system.cpu.dcache.blocked_cycles::no_mshrs        19681                       # number of cycles access was blocked
system.cpu.dcache.blocked_cycles::no_targets          143                       # number of cycles access was blocked
system.cpu.dcache.demand_accesses::.cpu.data            1                       # number of demand (read+write) accesses
system.cpu.dcache.demand_accesses::.switch_cpus.data     37145958                       # number of demand (read+write) accesses
system.cpu.dcache.demand_accesses::total     37145959                       # number of demand (read+write) accesses
system.cpu.dcache.demand_avg_miss_latency::.switch_cpus.data 27858.982499                       # average overall miss latency
system.cpu.dcache.demand_avg_miss_latency::total 27858.906756                       # average overall miss latency
system.cpu.dcache.demand_avg_mshr_miss_latency::.switch_cpus.data 32856.785786                       # average overall mshr miss latency
system.cpu.dcache.demand_avg_mshr_miss_latency::total 32856.785786                       # average overall mshr miss latency
system.cpu.dcache.demand_hits::.switch_cpus.data     36778150                       # number of demand (read+write) hits
system.cpu.dcache.demand_hits::total         36778150                       # number of demand (read+write) hits
system.cpu.dcache.demand_miss_latency::.switch_cpus.data  10246756635                       # number of demand (read+write) miss cycles
system.cpu.dcache.demand_miss_latency::total  10246756635                       # number of demand (read+write) miss cycles
system.cpu.dcache.demand_miss_rate::.cpu.data            1                       # miss rate for demand accesses
system.cpu.dcache.demand_miss_rate::.switch_cpus.data     0.009902                       # miss rate for demand accesses
system.cpu.dcache.demand_miss_rate::total     0.009902                       # miss rate for demand accesses
system.cpu.dcache.demand_misses::.cpu.data            1                       # number of demand (read+write) misses
system.cpu.dcache.demand_misses::.switch_cpus.data       367808                       # number of demand (read+write) misses
system.cpu.dcache.demand_misses::total         367809                       # number of demand (read+write) misses
system.cpu.dcache.demand_mshr_hits::.switch_cpus.data       226174                       # number of demand (read+write) MSHR hits
system.cpu.dcache.demand_mshr_hits::total       226174                       # number of demand (read+write) MSHR hits
system.cpu.dcache.demand_mshr_miss_latency::.switch_cpus.data   4653637998                       # number of demand (read+write) MSHR miss cycles
system.cpu.dcache.demand_mshr_miss_latency::total   4653637998                       # number of demand (read+write) MSHR miss cycles
system.cpu.dcache.demand_mshr_miss_rate::.switch_cpus.data     0.003813                       # mshr miss rate for demand accesses
system.cpu.dcache.demand_mshr_miss_rate::total     0.003813                       # mshr miss rate for demand accesses
system.cpu.dcache.demand_mshr_misses::.switch_cpus.data       141634                       # number of demand (read+write) MSHR misses
system.cpu.dcache.demand_mshr_misses::total       141634                       # number of demand (read+write) MSHR misses
system.cpu.dcache.overall_accesses::.cpu.data            1                       # number of overall (read+write) accesses
system.cpu.dcache.overall_accesses::.switch_cpus.data     37145958                       # number of overall (read+write) accesses
system.cpu.dcache.overall_accesses::total     37145959                       # number of overall (read+write) accesses
system.cpu.dcache.overall_avg_miss_latency::.switch_cpus.data 27858.982499                       # average overall miss latency
system.cpu.dcache.overall_avg_miss_latency::total 27858.906756                       # average overall miss latency
system.cpu.dcache.overall_avg_mshr_miss_latency::.switch_cpus.data 32856.785786                       # average overall mshr miss latency
system.cpu.dcache.overall_avg_mshr_miss_latency::total 32856.785786                       # average overall mshr miss latency
system.cpu.dcache.overall_hits::.switch_cpus.data     36778150                       # number of overall hits
system.cpu.dcache.overall_hits::total        36778150                       # number of overall hits
system.cpu.dcache.overall_miss_latency::.switch_cpus.data  10246756635                       # number of overall miss cycles
system.cpu.dcache.overall_miss_latency::total  10246756635                       # number of overall miss cycles
system.cpu.dcache.overall_miss_rate::.cpu.data            1                       # miss rate for overall accesses
system.cpu.dcache.overall_miss_rate::.switch_cpus.data     0.009902                       # miss rate for overall accesses
system.cpu.dcache.overall_miss_rate::total     0.009902                       # miss rate for overall accesses
system.cpu.dcache.overall_misses::.cpu.data            1                       # number of overall misses
system.cpu.dcache.overall_misses::.switch_cpus.data       367808                       # number of overall misses
system.cpu.dcache.overall_misses::total        367809                       # number of overall misses
system.cpu.dcache.overall_mshr_hits::.switch_cpus.data       226174                       # number of overall MSHR hits
system.cpu.dcache.overall_mshr_hits::total       226174                       # number of overall MSHR hits
system.cpu.dcache.overall_mshr_miss_latency::.switch_cpus.data   4653637998                       # number of overall MSHR miss cycles
system.cpu.dcache.overall_mshr_miss_latency::total   4653637998                       # number of overall MSHR miss cycles
system.cpu.dcache.overall_mshr_miss_rate::.switch_cpus.data     0.003813                       # mshr miss rate for overall accesses
system.cpu.dcache.overall_mshr_miss_rate::total     0.003813                       # mshr miss rate for overall accesses
system.cpu.dcache.overall_mshr_misses::.switch_cpus.data       141634                       # number of overall MSHR misses
system.cpu.dcache.overall_mshr_misses::total       141634                       # number of overall MSHR misses
system.cpu.dcache.pwrStateResidencyTicks::UNDEFINED 2203232138000                       # Cumulative time (in ticks) in various power states
system.cpu.dcache.replacements                 141123                       # number of replacements
system.cpu.dcache.tags.age_task_id_blocks_1024::0           24                       # Occupied blocks per task id
system.cpu.dcache.tags.age_task_id_blocks_1024::1          215                       # Occupied blocks per task id
system.cpu.dcache.tags.age_task_id_blocks_1024::2          185                       # Occupied blocks per task id
system.cpu.dcache.tags.age_task_id_blocks_1024::3           43                       # Occupied blocks per task id
system.cpu.dcache.tags.age_task_id_blocks_1024::4           45                       # Occupied blocks per task id
system.cpu.dcache.tags.avg_refs            260.668514                       # Average number of references to valid blocks.
system.cpu.dcache.tags.data_accesses        297309307                       # Number of data accesses
system.cpu.dcache.tags.occ_blocks::.cpu.data     0.002471                       # Average occupied blocks per requestor
system.cpu.dcache.tags.occ_blocks::.switch_cpus.data   511.263230                       # Average occupied blocks per requestor
system.cpu.dcache.tags.occ_percent::.cpu.data     0.000005                       # Average percentage of cache occupancy
system.cpu.dcache.tags.occ_percent::.switch_cpus.data     0.998561                       # Average percentage of cache occupancy
system.cpu.dcache.tags.occ_percent::total     0.998566                       # Average percentage of cache occupancy
system.cpu.dcache.tags.occ_task_id_blocks::1024          512                       # Occupied blocks per task id
system.cpu.dcache.tags.occ_task_id_percent::1024            1                       # Percentage of cache occupancy per task id
system.cpu.dcache.tags.pwrStateResidencyTicks::UNDEFINED 2203232138000                       # Cumulative time (in ticks) in various power states
system.cpu.dcache.tags.sampled_refs            141635                       # Sample count of references to valid blocks.
system.cpu.dcache.tags.tag_accesses         297309307                       # Number of tag accesses
system.cpu.dcache.tags.tagsinuse           511.265702                       # Cycle average of tags in use
system.cpu.dcache.tags.total_refs            36919785                       # Total number of references to valid blocks.
system.cpu.dcache.tags.warmup_cycle      2168570324000                       # Cycle when the warmup percentage was hit.
system.cpu.dcache.writebacks::.writebacks        89194                       # number of writebacks
system.cpu.dcache.writebacks::total             89194                       # number of writebacks
system.cpu.dtb.data_accesses                        1                       # DTB accesses
system.cpu.dtb.data_acv                             0                       # DTB access violations
system.cpu.dtb.data_hits                            1                       # DTB hits
system.cpu.dtb.data_misses                          0                       # DTB misses
system.cpu.dtb.fetch_accesses                       0                       # ITB accesses
system.cpu.dtb.fetch_acv                            0                       # ITB acv
system.cpu.dtb.fetch_hits                           0                       # ITB hits
system.cpu.dtb.fetch_misses                         0                       # ITB misses
system.cpu.dtb.pwrStateResidencyTicks::UNDEFINED 2203232138000                       # Cumulative time (in ticks) in various power states
system.cpu.dtb.read_accesses                        1                       # DTB read accesses
system.cpu.dtb.read_acv                             0                       # DTB read access violations
system.cpu.dtb.read_hits                            1                       # DTB read hits
system.cpu.dtb.read_misses                          0                       # DTB read misses
system.cpu.dtb.write_accesses                       0                       # DTB write accesses
system.cpu.dtb.write_acv                            0                       # DTB write access violations
system.cpu.dtb.write_hits                           0                       # DTB write hits
system.cpu.dtb.write_misses                         0                       # DTB write misses
system.cpu.icache.ReadReq_accesses::.cpu.inst           20                       # number of ReadReq accesses(hits+misses)
system.cpu.icache.ReadReq_accesses::.switch_cpus.inst     22917286                       # number of ReadReq accesses(hits+misses)
system.cpu.icache.ReadReq_accesses::total     22917306                       # number of ReadReq accesses(hits+misses)
system.cpu.icache.ReadReq_avg_miss_latency::.switch_cpus.inst 12830.305124                       # average ReadReq miss latency
system.cpu.icache.ReadReq_avg_miss_latency::total 12830.253182                       # average ReadReq miss latency
system.cpu.icache.ReadReq_avg_mshr_miss_latency::.switch_cpus.inst 12357.720927                       # average ReadReq mshr miss latency
system.cpu.icache.ReadReq_avg_mshr_miss_latency::total 12357.720927                       # average ReadReq mshr miss latency
system.cpu.icache.ReadReq_hits::.cpu.inst           19                       # number of ReadReq hits
system.cpu.icache.ReadReq_hits::.switch_cpus.inst     22670275                       # number of ReadReq hits
system.cpu.icache.ReadReq_hits::total        22670294                       # number of ReadReq hits
system.cpu.icache.ReadReq_miss_latency::.switch_cpus.inst   3169226499                       # number of ReadReq miss cycles
system.cpu.icache.ReadReq_miss_latency::total   3169226499                       # number of ReadReq miss cycles
system.cpu.icache.ReadReq_miss_rate::.cpu.inst     0.050000                       # miss rate for ReadReq accesses
system.cpu.icache.ReadReq_miss_rate::.switch_cpus.inst     0.010778                       # miss rate for ReadReq accesses
system.cpu.icache.ReadReq_miss_rate::total     0.010778                       # miss rate for ReadReq accesses
system.cpu.icache.ReadReq_misses::.cpu.inst            1                       # number of ReadReq misses
system.cpu.icache.ReadReq_misses::.switch_cpus.inst       247011                       # number of ReadReq misses
system.cpu.icache.ReadReq_misses::total        247012                       # number of ReadReq misses
system.cpu.icache.ReadReq_mshr_hits::.switch_cpus.inst        19655                       # number of ReadReq MSHR hits
system.cpu.icache.ReadReq_mshr_hits::total        19655                       # number of ReadReq MSHR hits
system.cpu.icache.ReadReq_mshr_miss_latency::.switch_cpus.inst   2809601999                       # number of ReadReq MSHR miss cycles
system.cpu.icache.ReadReq_mshr_miss_latency::total   2809601999                       # number of ReadReq MSHR miss cycles
system.cpu.icache.ReadReq_mshr_miss_rate::.switch_cpus.inst     0.009921                       # mshr miss rate for ReadReq accesses
system.cpu.icache.ReadReq_mshr_miss_rate::total     0.009921                       # mshr miss rate for ReadReq accesses
system.cpu.icache.ReadReq_mshr_misses::.switch_cpus.inst       227356                       # number of ReadReq MSHR misses
system.cpu.icache.ReadReq_mshr_misses::total       227356                       # number of ReadReq MSHR misses
system.cpu.icache.avg_blocked_cycles::no_mshrs    36.187500                       # average number of cycles each access was blocked
system.cpu.icache.avg_blocked_cycles::no_targets          nan                       # average number of cycles each access was blocked
system.cpu.icache.blocked::no_mshrs                16                       # number of cycles access was blocked
system.cpu.icache.blocked::no_targets               0                       # number of cycles access was blocked
system.cpu.icache.blocked_cycles::no_mshrs          579                       # number of cycles access was blocked
system.cpu.icache.blocked_cycles::no_targets            0                       # number of cycles access was blocked
system.cpu.icache.demand_accesses::.cpu.inst           20                       # number of demand (read+write) accesses
system.cpu.icache.demand_accesses::.switch_cpus.inst     22917286                       # number of demand (read+write) accesses
system.cpu.icache.demand_accesses::total     22917306                       # number of demand (read+write) accesses
system.cpu.icache.demand_avg_miss_latency::.switch_cpus.inst 12830.305124                       # average overall miss latency
system.cpu.icache.demand_avg_miss_latency::total 12830.253182                       # average overall miss latency
system.cpu.icache.demand_avg_mshr_miss_latency::.switch_cpus.inst 12357.720927                       # average overall mshr miss latency
system.cpu.icache.demand_avg_mshr_miss_latency::total 12357.720927                       # average overall mshr miss latency
system.cpu.icache.demand_hits::.cpu.inst           19                       # number of demand (read+write) hits
system.cpu.icache.demand_hits::.switch_cpus.inst     22670275                       # number of demand (read+write) hits
system.cpu.icache.demand_hits::total         22670294                       # number of demand (read+write) hits
system.cpu.icache.demand_miss_latency::.switch_cpus.inst   3169226499                       # number of demand (read+write) miss cycles
system.cpu.icache.demand_miss_latency::total   3169226499                       # number of demand (read+write) miss cycles
system.cpu.icache.demand_miss_rate::.cpu.inst     0.050000                       # miss rate for demand accesses
system.cpu.icache.demand_miss_rate::.switch_cpus.inst     0.010778                       # miss rate for demand accesses
system.cpu.icache.demand_miss_rate::total     0.010778                       # miss rate for demand accesses
system.cpu.icache.demand_misses::.cpu.inst            1                       # number of demand (read+write) misses
system.cpu.icache.demand_misses::.switch_cpus.inst       247011                       # number of demand (read+write) misses
system.cpu.icache.demand_misses::total         247012                       # number of demand (read+write) misses
system.cpu.icache.demand_mshr_hits::.switch_cpus.inst        19655                       # number of demand (read+write) MSHR hits
system.cpu.icache.demand_mshr_hits::total        19655                       # number of demand (read+write) MSHR hits
system.cpu.icache.demand_mshr_miss_latency::.switch_cpus.inst   2809601999                       # number of demand (read+write) MSHR miss cycles
system.cpu.icache.demand_mshr_miss_latency::total   2809601999                       # number of demand (read+write) MSHR miss cycles
system.cpu.icache.demand_mshr_miss_rate::.switch_cpus.inst     0.009921                       # mshr miss rate for demand accesses
system.cpu.icache.demand_mshr_miss_rate::total     0.009921                       # mshr miss rate for demand accesses
system.cpu.icache.demand_mshr_misses::.switch_cpus.inst       227356                       # number of demand (read+write) MSHR misses
system.cpu.icache.demand_mshr_misses::total       227356                       # number of demand (read+write) MSHR misses
system.cpu.icache.overall_accesses::.cpu.inst           20                       # number of overall (read+write) accesses
system.cpu.icache.overall_accesses::.switch_cpus.inst     22917286                       # number of overall (read+write) accesses
system.cpu.icache.overall_accesses::total     22917306                       # number of overall (read+write) accesses
system.cpu.icache.overall_avg_miss_latency::.switch_cpus.inst 12830.305124                       # average overall miss latency
system.cpu.icache.overall_avg_miss_latency::total 12830.253182                       # average overall miss latency
system.cpu.icache.overall_avg_mshr_miss_latency::.switch_cpus.inst 12357.720927                       # average overall mshr miss latency
system.cpu.icache.overall_avg_mshr_miss_latency::total 12357.720927                       # average overall mshr miss latency
system.cpu.icache.overall_hits::.cpu.inst           19                       # number of overall hits
system.cpu.icache.overall_hits::.switch_cpus.inst     22670275                       # number of overall hits
system.cpu.icache.overall_hits::total        22670294                       # number of overall hits
system.cpu.icache.overall_miss_latency::.switch_cpus.inst   3169226499                       # number of overall miss cycles
system.cpu.icache.overall_miss_latency::total   3169226499                       # number of overall miss cycles
system.cpu.icache.overall_miss_rate::.cpu.inst     0.050000                       # miss rate for overall accesses
system.cpu.icache.overall_miss_rate::.switch_cpus.inst     0.010778                       # miss rate for overall accesses
system.cpu.icache.overall_miss_rate::total     0.010778                       # miss rate for overall accesses
system.cpu.icache.overall_misses::.cpu.inst            1                       # number of overall misses
system.cpu.icache.overall_misses::.switch_cpus.inst       247011                       # number of overall misses
system.cpu.icache.overall_misses::total        247012                       # number of overall misses
system.cpu.icache.overall_mshr_hits::.switch_cpus.inst        19655                       # number of overall MSHR hits
system.cpu.icache.overall_mshr_hits::total        19655                       # number of overall MSHR hits
system.cpu.icache.overall_mshr_miss_latency::.switch_cpus.inst   2809601999                       # number of overall MSHR miss cycles
system.cpu.icache.overall_mshr_miss_latency::total   2809601999                       # number of overall MSHR miss cycles
system.cpu.icache.overall_mshr_miss_rate::.switch_cpus.inst     0.009921                       # mshr miss rate for overall accesses
system.cpu.icache.overall_mshr_miss_rate::total     0.009921                       # mshr miss rate for overall accesses
system.cpu.icache.overall_mshr_misses::.switch_cpus.inst       227356                       # number of overall MSHR misses
system.cpu.icache.overall_mshr_misses::total       227356                       # number of overall MSHR misses
system.cpu.icache.pwrStateResidencyTicks::UNDEFINED 2203232138000                       # Cumulative time (in ticks) in various power states
system.cpu.icache.replacements                 226845                       # number of replacements
system.cpu.icache.tags.age_task_id_blocks_1024::1          199                       # Occupied blocks per task id
system.cpu.icache.tags.age_task_id_blocks_1024::2          160                       # Occupied blocks per task id
system.cpu.icache.tags.age_task_id_blocks_1024::3           71                       # Occupied blocks per task id
system.cpu.icache.tags.age_task_id_blocks_1024::4           82                       # Occupied blocks per task id
system.cpu.icache.tags.avg_refs            100.712320                       # Average number of references to valid blocks.
system.cpu.icache.tags.data_accesses        183565805                       # Number of data accesses
system.cpu.icache.tags.occ_blocks::.cpu.inst     0.002169                       # Average occupied blocks per requestor
system.cpu.icache.tags.occ_blocks::.switch_cpus.inst   511.305469                       # Average occupied blocks per requestor
system.cpu.icache.tags.occ_percent::.cpu.inst     0.000004                       # Average percentage of cache occupancy
system.cpu.icache.tags.occ_percent::.switch_cpus.inst     0.998643                       # Average percentage of cache occupancy
system.cpu.icache.tags.occ_percent::total     0.998648                       # Average percentage of cache occupancy
system.cpu.icache.tags.occ_task_id_blocks::1024          512                       # Occupied blocks per task id
system.cpu.icache.tags.occ_task_id_percent::1024            1                       # Percentage of cache occupancy per task id
system.cpu.icache.tags.pwrStateResidencyTicks::UNDEFINED 2203232138000                       # Cumulative time (in ticks) in various power states
system.cpu.icache.tags.sampled_refs            227357                       # Sample count of references to valid blocks.
system.cpu.icache.tags.tag_accesses         183565805                       # Number of tag accesses
system.cpu.icache.tags.tagsinuse           511.307638                       # Cycle average of tags in use
system.cpu.icache.tags.total_refs            22897651                       # Total number of references to valid blocks.
system.cpu.icache.tags.warmup_cycle      2168570320000                       # Cycle when the warmup percentage was hit.
system.cpu.icache.writebacks::.writebacks       226845                       # number of writebacks
system.cpu.icache.writebacks::total            226845                       # number of writebacks
system.cpu.idle_fraction                            0                       # Percentage of idle cycles
system.cpu.itb.data_accesses                        0                       # DTB accesses
system.cpu.itb.data_acv                             0                       # DTB access violations
system.cpu.itb.data_hits                            0                       # DTB hits
system.cpu.itb.data_misses                          0                       # DTB misses
system.cpu.itb.fetch_accesses                      20                       # ITB accesses
system.cpu.itb.fetch_acv                            0                       # ITB acv
system.cpu.itb.fetch_hits                          20                       # ITB hits
system.cpu.itb.fetch_misses                         0                       # ITB misses
system.cpu.itb.pwrStateResidencyTicks::UNDEFINED 2203232138000                       # Cumulative time (in ticks) in various power states
system.cpu.itb.read_accesses                        0                       # DTB read accesses
system.cpu.itb.read_acv                             0                       # DTB read access violations
system.cpu.itb.read_hits                            0                       # DTB read hits
system.cpu.itb.read_misses                          0                       # DTB read misses
system.cpu.itb.write_accesses                       0                       # DTB write accesses
system.cpu.itb.write_acv                            0                       # DTB write access violations
system.cpu.itb.write_hits                           0                       # DTB write hits
system.cpu.itb.write_misses                         0                       # DTB write misses
system.cpu.not_idle_fraction                        1                       # Percentage of non-idle cycles
system.cpu.numCycles                               20                       # number of cpu cycles simulated
system.cpu.numPwrStateTransitions                   1                       # Number of power state transitions
system.cpu.numWorkItemsCompleted                    0                       # number of work items this cpu completed
system.cpu.numWorkItemsStarted                      0                       # number of work items this cpu started
system.cpu.num_busy_cycles                         20                       # Number of busy cycles
system.cpu.num_conditional_control_insts            2                       # number of instructions that are conditional controls
system.cpu.num_fp_alu_accesses                      0                       # Number of float alu accesses
system.cpu.num_fp_insts                             0                       # number of float instructions
system.cpu.num_fp_register_reads                    0                       # number of times the floating registers were read
system.cpu.num_fp_register_writes                   0                       # number of times the floating registers were written
system.cpu.num_func_calls                           0                       # number of times a function call or return occured
system.cpu.num_idle_cycles                          0                       # Number of idle cycles
system.cpu.num_int_alu_accesses                    20                       # Number of integer alu accesses
system.cpu.num_int_insts                           20                       # number of integer instructions
system.cpu.num_int_register_reads                  36                       # number of times the integer registers were read
system.cpu.num_int_register_writes                 18                       # number of times the integer registers were written
system.cpu.num_load_insts                           1                       # Number of load instructions
system.cpu.num_mem_refs                             1                       # number of memory refs
system.cpu.num_store_insts                          0                       # Number of store instructions
system.cpu.num_vec_alu_accesses                     0                       # Number of vector alu accesses
system.cpu.num_vec_insts                            0                       # number of vector instructions
system.cpu.num_vec_register_reads                   0                       # number of times the vector registers were read
system.cpu.num_vec_register_writes                  0                       # number of times the vector registers were written
system.cpu.op_class::No_OpClass                     0      0.00%      0.00% # Class of executed instruction
system.cpu.op_class::IntAlu                        19     95.00%     95.00% # Class of executed instruction
system.cpu.op_class::IntMult                        0      0.00%     95.00% # Class of executed instruction
system.cpu.op_class::IntDiv                         0      0.00%     95.00% # Class of executed instruction
system.cpu.op_class::FloatAdd                       0      0.00%     95.00% # Class of executed instruction
system.cpu.op_class::FloatCmp                       0      0.00%     95.00% # Class of executed instruction
system.cpu.op_class::FloatCvt                       0      0.00%     95.00% # Class of executed instruction
system.cpu.op_class::FloatMult                      0      0.00%     95.00% # Class of executed instruction
system.cpu.op_class::FloatMultAcc                   0      0.00%     95.00% # Class of executed instruction
system.cpu.op_class::FloatDiv                       0      0.00%     95.00% # Class of executed instruction
system.cpu.op_class::FloatMisc                      0      0.00%     95.00% # Class of executed instruction
system.cpu.op_class::FloatSqrt                      0      0.00%     95.00% # Class of executed instruction
system.cpu.op_class::SimdAdd                        0      0.00%     95.00% # Class of executed instruction
system.cpu.op_class::SimdAddAcc                     0      0.00%     95.00% # Class of executed instruction
system.cpu.op_class::SimdAlu                        0      0.00%     95.00% # Class of executed instruction
system.cpu.op_class::SimdCmp                        0      0.00%     95.00% # Class of executed instruction
system.cpu.op_class::SimdCvt                        0      0.00%     95.00% # Class of executed instruction
system.cpu.op_class::SimdMisc                       0      0.00%     95.00% # Class of executed instruction
system.cpu.op_class::SimdMult                       0      0.00%     95.00% # Class of executed instruction
system.cpu.op_class::SimdMultAcc                    0      0.00%     95.00% # Class of executed instruction
system.cpu.op_class::SimdShift                      0      0.00%     95.00% # Class of executed instruction
system.cpu.op_class::SimdShiftAcc                   0      0.00%     95.00% # Class of executed instruction
system.cpu.op_class::SimdSqrt                       0      0.00%     95.00% # Class of executed instruction
system.cpu.op_class::SimdFloatAdd                   0      0.00%     95.00% # Class of executed instruction
system.cpu.op_class::SimdFloatAlu                   0      0.00%     95.00% # Class of executed instruction
system.cpu.op_class::SimdFloatCmp                   0      0.00%     95.00% # Class of executed instruction
system.cpu.op_class::SimdFloatCvt                   0      0.00%     95.00% # Class of executed instruction
system.cpu.op_class::SimdFloatDiv                   0      0.00%     95.00% # Class of executed instruction
system.cpu.op_class::SimdFloatMisc                  0      0.00%     95.00% # Class of executed instruction
system.cpu.op_class::SimdFloatMult                  0      0.00%     95.00% # Class of executed instruction
system.cpu.op_class::SimdFloatMultAcc               0      0.00%     95.00% # Class of executed instruction
system.cpu.op_class::SimdFloatSqrt                  0      0.00%     95.00% # Class of executed instruction
system.cpu.op_class::SimdAes                        0      0.00%     95.00% # Class of executed instruction
system.cpu.op_class::SimdAesMix                     0      0.00%     95.00% # Class of executed instruction
system.cpu.op_class::SimdSha1Hash                   0      0.00%     95.00% # Class of executed instruction
system.cpu.op_class::SimdSha1Hash2                  0      0.00%     95.00% # Class of executed instruction
system.cpu.op_class::SimdSha256Hash                 0      0.00%     95.00% # Class of executed instruction
system.cpu.op_class::SimdSha256Hash2                0      0.00%     95.00% # Class of executed instruction
system.cpu.op_class::SimdShaSigma2                  0      0.00%     95.00% # Class of executed instruction
system.cpu.op_class::SimdShaSigma3                  0      0.00%     95.00% # Class of executed instruction
system.cpu.op_class::MemRead                        1      5.00%    100.00% # Class of executed instruction
system.cpu.op_class::MemWrite                       0      0.00%    100.00% # Class of executed instruction
system.cpu.op_class::FloatMemRead                   0      0.00%    100.00% # Class of executed instruction
system.cpu.op_class::FloatMemWrite                  0      0.00%    100.00% # Class of executed instruction
system.cpu.op_class::IprAccess                      0      0.00%    100.00% # Class of executed instruction
system.cpu.op_class::InstPrefetch                   0      0.00%    100.00% # Class of executed instruction
system.cpu.op_class::total                         20                       # Class of executed instruction
system.cpu.pwrStateResidencyTicks::ON           10000                       # Cumulative time (in ticks) in various power states
system.cpu.pwrStateResidencyTicks::OFF    34661808500                       # Cumulative time (in ticks) in various power states
system.cpu.workload.numSyscalls                     0                       # Number of system calls
system.cpu_clk_domain.clock                       500                       # Clock period in ticks
system.cpu_voltage_domain.voltage                   1                       # Voltage in Volts
system.l2.CleanEvict_mshr_miss_rate::.writebacks          inf                       # mshr miss rate for CleanEvict accesses
system.l2.CleanEvict_mshr_miss_rate::total          inf                       # mshr miss rate for CleanEvict accesses
system.l2.CleanEvict_mshr_misses::.writebacks            1                       # number of CleanEvict MSHR misses
system.l2.CleanEvict_mshr_misses::total             1                       # number of CleanEvict MSHR misses
system.l2.InvalidateReq_accesses::.switch_cpus.data         1587                       # number of InvalidateReq accesses(hits+misses)
system.l2.InvalidateReq_accesses::total          1587                       # number of InvalidateReq accesses(hits+misses)
system.l2.InvalidateReq_avg_mshr_miss_latency::.switch_cpus.data        19200                       # average InvalidateReq mshr miss latency
system.l2.InvalidateReq_avg_mshr_miss_latency::total        19200                       # average InvalidateReq mshr miss latency
system.l2.InvalidateReq_hits::.switch_cpus.data         1562                       # number of InvalidateReq hits
system.l2.InvalidateReq_hits::total              1562                       # number of InvalidateReq hits
system.l2.InvalidateReq_miss_rate::.switch_cpus.data     0.015753                       # miss rate for InvalidateReq accesses
system.l2.InvalidateReq_miss_rate::total     0.015753                       # miss rate for InvalidateReq accesses
system.l2.InvalidateReq_misses::.switch_cpus.data           25                       # number of InvalidateReq misses
system.l2.InvalidateReq_misses::total              25                       # number of InvalidateReq misses
system.l2.InvalidateReq_mshr_miss_latency::.switch_cpus.data       480000                       # number of InvalidateReq MSHR miss cycles
system.l2.InvalidateReq_mshr_miss_latency::total       480000                       # number of InvalidateReq MSHR miss cycles
system.l2.InvalidateReq_mshr_miss_rate::.switch_cpus.data     0.015753                       # mshr miss rate for InvalidateReq accesses
system.l2.InvalidateReq_mshr_miss_rate::total     0.015753                       # mshr miss rate for InvalidateReq accesses
system.l2.InvalidateReq_mshr_misses::.switch_cpus.data           25                       # number of InvalidateReq MSHR misses
system.l2.InvalidateReq_mshr_misses::total           25                       # number of InvalidateReq MSHR misses
system.l2.ReadCleanReq_accesses::.cpu.inst            1                       # number of ReadCleanReq accesses(hits+misses)
system.l2.ReadCleanReq_accesses::.switch_cpus.inst       227356                       # number of ReadCleanReq accesses(hits+misses)
system.l2.ReadCleanReq_accesses::total         227357                       # number of ReadCleanReq accesses(hits+misses)
system.l2.ReadCleanReq_avg_miss_latency::.switch_cpus.inst 86162.500000                       # average ReadCleanReq miss latency
system.l2.ReadCleanReq_avg_miss_latency::total 86064.699205                       # average ReadCleanReq miss latency
system.l2.ReadCleanReq_avg_mshr_miss_latency::.switch_cpus.inst 76162.500000                       # average ReadCleanReq mshr miss latency
system.l2.ReadCleanReq_avg_mshr_miss_latency::total 76162.500000                       # average ReadCleanReq mshr miss latency
system.l2.ReadCleanReq_hits::.switch_cpus.inst       226476                       # number of ReadCleanReq hits
system.l2.ReadCleanReq_hits::total             226476                       # number of ReadCleanReq hits
system.l2.ReadCleanReq_miss_latency::.switch_cpus.inst     75823000                       # number of ReadCleanReq miss cycles
system.l2.ReadCleanReq_miss_latency::total     75823000                       # number of ReadCleanReq miss cycles
system.l2.ReadCleanReq_miss_rate::.cpu.inst            1                       # miss rate for ReadCleanReq accesses
system.l2.ReadCleanReq_miss_rate::.switch_cpus.inst     0.003871                       # miss rate for ReadCleanReq accesses
system.l2.ReadCleanReq_miss_rate::total      0.003875                       # miss rate for ReadCleanReq accesses
system.l2.ReadCleanReq_misses::.cpu.inst            1                       # number of ReadCleanReq misses
system.l2.ReadCleanReq_misses::.switch_cpus.inst          880                       # number of ReadCleanReq misses
system.l2.ReadCleanReq_misses::total              881                       # number of ReadCleanReq misses
system.l2.ReadCleanReq_mshr_miss_latency::.switch_cpus.inst     67023000                       # number of ReadCleanReq MSHR miss cycles
system.l2.ReadCleanReq_mshr_miss_latency::total     67023000                       # number of ReadCleanReq MSHR miss cycles
system.l2.ReadCleanReq_mshr_miss_rate::.switch_cpus.inst     0.003871                       # mshr miss rate for ReadCleanReq accesses
system.l2.ReadCleanReq_mshr_miss_rate::total     0.003871                       # mshr miss rate for ReadCleanReq accesses
system.l2.ReadCleanReq_mshr_misses::.switch_cpus.inst          880                       # number of ReadCleanReq MSHR misses
system.l2.ReadCleanReq_mshr_misses::total          880                       # number of ReadCleanReq MSHR misses
system.l2.ReadExReq_accesses::.switch_cpus.data        43895                       # number of ReadExReq accesses(hits+misses)
system.l2.ReadExReq_accesses::total             43895                       # number of ReadExReq accesses(hits+misses)
system.l2.ReadExReq_avg_miss_latency::.switch_cpus.data 91556.887444                       # average ReadExReq miss latency
system.l2.ReadExReq_avg_miss_latency::total 91556.887444                       # average ReadExReq miss latency
system.l2.ReadExReq_avg_mshr_miss_latency::.switch_cpus.data 81556.887444                       # average ReadExReq mshr miss latency
system.l2.ReadExReq_avg_mshr_miss_latency::total 81556.887444                       # average ReadExReq mshr miss latency
system.l2.ReadExReq_hits::.switch_cpus.data        41434                       # number of ReadExReq hits
system.l2.ReadExReq_hits::total                 41434                       # number of ReadExReq hits
system.l2.ReadExReq_miss_latency::.switch_cpus.data    225321500                       # number of ReadExReq miss cycles
system.l2.ReadExReq_miss_latency::total     225321500                       # number of ReadExReq miss cycles
system.l2.ReadExReq_miss_rate::.switch_cpus.data     0.056066                       # miss rate for ReadExReq accesses
system.l2.ReadExReq_miss_rate::total         0.056066                       # miss rate for ReadExReq accesses
system.l2.ReadExReq_misses::.switch_cpus.data         2461                       # number of ReadExReq misses
system.l2.ReadExReq_misses::total                2461                       # number of ReadExReq misses
system.l2.ReadExReq_mshr_miss_latency::.switch_cpus.data    200711500                       # number of ReadExReq MSHR miss cycles
system.l2.ReadExReq_mshr_miss_latency::total    200711500                       # number of ReadExReq MSHR miss cycles
system.l2.ReadExReq_mshr_miss_rate::.switch_cpus.data     0.056066                       # mshr miss rate for ReadExReq accesses
system.l2.ReadExReq_mshr_miss_rate::total     0.056066                       # mshr miss rate for ReadExReq accesses
system.l2.ReadExReq_mshr_misses::.switch_cpus.data         2461                       # number of ReadExReq MSHR misses
system.l2.ReadExReq_mshr_misses::total           2461                       # number of ReadExReq MSHR misses
system.l2.ReadSharedReq_accesses::.cpu.data            1                       # number of ReadSharedReq accesses(hits+misses)
system.l2.ReadSharedReq_accesses::.switch_cpus.data        96152                       # number of ReadSharedReq accesses(hits+misses)
system.l2.ReadSharedReq_accesses::total         96153                       # number of ReadSharedReq accesses(hits+misses)
system.l2.ReadSharedReq_avg_miss_latency::.switch_cpus.data 103395.774027                       # average ReadSharedReq miss latency
system.l2.ReadSharedReq_avg_miss_latency::total 103392.270155                       # average ReadSharedReq miss latency
system.l2.ReadSharedReq_avg_mshr_miss_latency::.switch_cpus.data 93395.774027                       # average ReadSharedReq mshr miss latency
system.l2.ReadSharedReq_avg_mshr_miss_latency::total 93395.774027                       # average ReadSharedReq mshr miss latency
system.l2.ReadSharedReq_hits::.switch_cpus.data        66644                       # number of ReadSharedReq hits
system.l2.ReadSharedReq_hits::total             66644                       # number of ReadSharedReq hits
system.l2.ReadSharedReq_miss_latency::.switch_cpus.data   3051002500                       # number of ReadSharedReq miss cycles
system.l2.ReadSharedReq_miss_latency::total   3051002500                       # number of ReadSharedReq miss cycles
system.l2.ReadSharedReq_miss_rate::.cpu.data            1                       # miss rate for ReadSharedReq accesses
system.l2.ReadSharedReq_miss_rate::.switch_cpus.data     0.306889                       # miss rate for ReadSharedReq accesses
system.l2.ReadSharedReq_miss_rate::total     0.306896                       # miss rate for ReadSharedReq accesses
system.l2.ReadSharedReq_misses::.cpu.data            1                       # number of ReadSharedReq misses
system.l2.ReadSharedReq_misses::.switch_cpus.data        29508                       # number of ReadSharedReq misses
system.l2.ReadSharedReq_misses::total           29509                       # number of ReadSharedReq misses
system.l2.ReadSharedReq_mshr_miss_latency::.switch_cpus.data   2755922500                       # number of ReadSharedReq MSHR miss cycles
system.l2.ReadSharedReq_mshr_miss_latency::total   2755922500                       # number of ReadSharedReq MSHR miss cycles
system.l2.ReadSharedReq_mshr_miss_rate::.switch_cpus.data     0.306889                       # mshr miss rate for ReadSharedReq accesses
system.l2.ReadSharedReq_mshr_miss_rate::total     0.306886                       # mshr miss rate for ReadSharedReq accesses
system.l2.ReadSharedReq_mshr_misses::.switch_cpus.data        29508                       # number of ReadSharedReq MSHR misses
system.l2.ReadSharedReq_mshr_misses::total        29508                       # number of ReadSharedReq MSHR misses
system.l2.WritebackClean_accesses::.writebacks       226845                       # number of WritebackClean accesses(hits+misses)
system.l2.WritebackClean_accesses::total       226845                       # number of WritebackClean accesses(hits+misses)
system.l2.WritebackClean_hits::.writebacks       226845                       # number of WritebackClean hits
system.l2.WritebackClean_hits::total           226845                       # number of WritebackClean hits
system.l2.WritebackDirty_accesses::.writebacks        89194                       # number of WritebackDirty accesses(hits+misses)
system.l2.WritebackDirty_accesses::total        89194                       # number of WritebackDirty accesses(hits+misses)
system.l2.WritebackDirty_hits::.writebacks        89194                       # number of WritebackDirty hits
system.l2.WritebackDirty_hits::total            89194                       # number of WritebackDirty hits
system.l2.avg_blocked_cycles::no_mshrs            nan                       # average number of cycles each access was blocked
system.l2.avg_blocked_cycles::no_targets          nan                       # average number of cycles each access was blocked
system.l2.blocked::no_mshrs                         0                       # number of cycles access was blocked
system.l2.blocked::no_targets                       0                       # number of cycles access was blocked
system.l2.blocked_cycles::no_mshrs                  0                       # number of cycles access was blocked
system.l2.blocked_cycles::no_targets                0                       # number of cycles access was blocked
system.l2.demand_accesses::.cpu.inst                1                       # number of demand (read+write) accesses
system.l2.demand_accesses::.cpu.data                1                       # number of demand (read+write) accesses
system.l2.demand_accesses::.switch_cpus.inst       227356                       # number of demand (read+write) accesses
system.l2.demand_accesses::.switch_cpus.data       140047                       # number of demand (read+write) accesses
system.l2.demand_accesses::total               367405                       # number of demand (read+write) accesses
system.l2.demand_avg_miss_latency::.switch_cpus.inst 86162.500000                       # average overall miss latency
system.l2.demand_avg_miss_latency::.switch_cpus.data 102484.406769                       # average overall miss latency
system.l2.demand_avg_miss_latency::total 102040.942437                       # average overall miss latency
system.l2.demand_avg_mshr_miss_latency::.switch_cpus.inst 76162.500000                       # average overall mshr miss latency
system.l2.demand_avg_mshr_miss_latency::.switch_cpus.data 92484.406769                       # average overall mshr miss latency
system.l2.demand_avg_mshr_miss_latency::total 92047.155165                       # average overall mshr miss latency
system.l2.demand_hits::.switch_cpus.inst       226476                       # number of demand (read+write) hits
system.l2.demand_hits::.switch_cpus.data       108078                       # number of demand (read+write) hits
system.l2.demand_hits::total                   334554                       # number of demand (read+write) hits
system.l2.demand_miss_latency::.switch_cpus.inst     75823000                       # number of demand (read+write) miss cycles
system.l2.demand_miss_latency::.switch_cpus.data   3276324000                       # number of demand (read+write) miss cycles
system.l2.demand_miss_latency::total       3352147000                       # number of demand (read+write) miss cycles
system.l2.demand_miss_rate::.cpu.inst               1                       # miss rate for demand accesses
system.l2.demand_miss_rate::.cpu.data               1                       # miss rate for demand accesses
system.l2.demand_miss_rate::.switch_cpus.inst     0.003871                       # miss rate for demand accesses
system.l2.demand_miss_rate::.switch_cpus.data     0.228273                       # miss rate for demand accesses
system.l2.demand_miss_rate::total            0.089414                       # miss rate for demand accesses
system.l2.demand_misses::.cpu.inst                  1                       # number of demand (read+write) misses
system.l2.demand_misses::.cpu.data                  1                       # number of demand (read+write) misses
system.l2.demand_misses::.switch_cpus.inst          880                       # number of demand (read+write) misses
system.l2.demand_misses::.switch_cpus.data        31969                       # number of demand (read+write) misses
system.l2.demand_misses::total                  32851                       # number of demand (read+write) misses
system.l2.demand_mshr_miss_latency::.switch_cpus.inst     67023000                       # number of demand (read+write) MSHR miss cycles
system.l2.demand_mshr_miss_latency::.switch_cpus.data   2956634000                       # number of demand (read+write) MSHR miss cycles
system.l2.demand_mshr_miss_latency::total   3023657000                       # number of demand (read+write) MSHR miss cycles
system.l2.demand_mshr_miss_rate::.switch_cpus.inst     0.003871                       # mshr miss rate for demand accesses
system.l2.demand_mshr_miss_rate::.switch_cpus.data     0.228273                       # mshr miss rate for demand accesses
system.l2.demand_mshr_miss_rate::total       0.089408                       # mshr miss rate for demand accesses
system.l2.demand_mshr_misses::.switch_cpus.inst          880                       # number of demand (read+write) MSHR misses
system.l2.demand_mshr_misses::.switch_cpus.data        31969                       # number of demand (read+write) MSHR misses
system.l2.demand_mshr_misses::total             32849                       # number of demand (read+write) MSHR misses
system.l2.overall_accesses::.cpu.inst               1                       # number of overall (read+write) accesses
system.l2.overall_accesses::.cpu.data               1                       # number of overall (read+write) accesses
system.l2.overall_accesses::.switch_cpus.inst       227356                       # number of overall (read+write) accesses
system.l2.overall_accesses::.switch_cpus.data       140047                       # number of overall (read+write) accesses
system.l2.overall_accesses::total              367405                       # number of overall (read+write) accesses
system.l2.overall_avg_miss_latency::.switch_cpus.inst 86162.500000                       # average overall miss latency
system.l2.overall_avg_miss_latency::.switch_cpus.data 102484.406769                       # average overall miss latency
system.l2.overall_avg_miss_latency::total 102040.942437                       # average overall miss latency
system.l2.overall_avg_mshr_miss_latency::.switch_cpus.inst 76162.500000                       # average overall mshr miss latency
system.l2.overall_avg_mshr_miss_latency::.switch_cpus.data 92484.406769                       # average overall mshr miss latency
system.l2.overall_avg_mshr_miss_latency::total 92047.155165                       # average overall mshr miss latency
system.l2.overall_hits::.switch_cpus.inst       226476                       # number of overall hits
system.l2.overall_hits::.switch_cpus.data       108078                       # number of overall hits
system.l2.overall_hits::total                  334554                       # number of overall hits
system.l2.overall_miss_latency::.switch_cpus.inst     75823000                       # number of overall miss cycles
system.l2.overall_miss_latency::.switch_cpus.data   3276324000                       # number of overall miss cycles
system.l2.overall_miss_latency::total      3352147000                       # number of overall miss cycles
system.l2.overall_miss_rate::.cpu.inst              1                       # miss rate for overall accesses
system.l2.overall_miss_rate::.cpu.data              1                       # miss rate for overall accesses
system.l2.overall_miss_rate::.switch_cpus.inst     0.003871                       # miss rate for overall accesses
system.l2.overall_miss_rate::.switch_cpus.data     0.228273                       # miss rate for overall accesses
system.l2.overall_miss_rate::total           0.089414                       # miss rate for overall accesses
system.l2.overall_misses::.cpu.inst                 1                       # number of overall misses
system.l2.overall_misses::.cpu.data                 1                       # number of overall misses
system.l2.overall_misses::.switch_cpus.inst          880                       # number of overall misses
system.l2.overall_misses::.switch_cpus.data        31969                       # number of overall misses
system.l2.overall_misses::total                 32851                       # number of overall misses
system.l2.overall_mshr_miss_latency::.switch_cpus.inst     67023000                       # number of overall MSHR miss cycles
system.l2.overall_mshr_miss_latency::.switch_cpus.data   2956634000                       # number of overall MSHR miss cycles
system.l2.overall_mshr_miss_latency::total   3023657000                       # number of overall MSHR miss cycles
system.l2.overall_mshr_miss_rate::.switch_cpus.inst     0.003871                       # mshr miss rate for overall accesses
system.l2.overall_mshr_miss_rate::.switch_cpus.data     0.228273                       # mshr miss rate for overall accesses
system.l2.overall_mshr_miss_rate::total      0.089408                       # mshr miss rate for overall accesses
system.l2.overall_mshr_misses::.switch_cpus.inst          880                       # number of overall MSHR misses
system.l2.overall_mshr_misses::.switch_cpus.data        31969                       # number of overall MSHR misses
system.l2.overall_mshr_misses::total            32849                       # number of overall MSHR misses
system.l2.pwrStateResidencyTicks::UNDEFINED 2203232138000                       # Cumulative time (in ticks) in various power states
system.l2.replacements                           3271                       # number of replacements
system.l2.tags.age_task_id_blocks_1024::0           11                       # Occupied blocks per task id
system.l2.tags.age_task_id_blocks_1024::1           85                       # Occupied blocks per task id
system.l2.tags.age_task_id_blocks_1024::2          680                       # Occupied blocks per task id
system.l2.tags.age_task_id_blocks_1024::3         7579                       # Occupied blocks per task id
system.l2.tags.age_task_id_blocks_1024::4        21248                       # Occupied blocks per task id
system.l2.tags.avg_refs                     21.400105                       # Average number of references to valid blocks.
system.l2.tags.data_accesses                 11825796                       # Number of data accesses
system.l2.tags.occ_blocks::.writebacks      67.937903                       # Average occupied blocks per requestor
system.l2.tags.occ_blocks::.cpu.inst         1.000000                       # Average occupied blocks per requestor
system.l2.tags.occ_blocks::.cpu.data         0.700090                       # Average occupied blocks per requestor
system.l2.tags.occ_blocks::.switch_cpus.inst   797.791722                       # Average occupied blocks per requestor
system.l2.tags.occ_blocks::.switch_cpus.data 16105.669625                       # Average occupied blocks per requestor
system.l2.tags.occ_percent::.writebacks      0.002073                       # Average percentage of cache occupancy
system.l2.tags.occ_percent::.cpu.inst        0.000031                       # Average percentage of cache occupancy
system.l2.tags.occ_percent::.cpu.data        0.000021                       # Average percentage of cache occupancy
system.l2.tags.occ_percent::.switch_cpus.inst     0.024347                       # Average percentage of cache occupancy
system.l2.tags.occ_percent::.switch_cpus.data     0.491506                       # Average percentage of cache occupancy
system.l2.tags.occ_percent::total            0.517978                       # Average percentage of cache occupancy
system.l2.tags.occ_task_id_blocks::1024         29603                       # Occupied blocks per task id
system.l2.tags.occ_task_id_percent::1024     0.903412                       # Percentage of cache occupancy per task id
system.l2.tags.pwrStateResidencyTicks::UNDEFINED 2203232138000                       # Cumulative time (in ticks) in various power states
system.l2.tags.sampled_refs                     34436                       # Sample count of references to valid blocks.
system.l2.tags.tag_accesses                  11825796                       # Number of tag accesses
system.l2.tags.tagsinuse                 16973.099339                       # Cycle average of tags in use
system.l2.tags.total_refs                      736934                       # Total number of references to valid blocks.
system.l2.tags.warmup_cycle              2168570320000                       # Cycle when the warmup percentage was hit.
system.l2.writebacks::.writebacks                2515                       # number of writebacks
system.l2.writebacks::total                      2515                       # number of writebacks
system.mem_ctrls.avgBusLat                    5000.00                       # Average bus latency per DRAM burst
system.mem_ctrls.avgGap                     980101.59                       # Average gap between requests
system.mem_ctrls.avgMemAccLat                50816.43                       # Average memory access latency per DRAM burst
system.mem_ctrls.avgPriority_.writebacks::samples      2515.00                       # Average QoS priority value for accepted requests
system.mem_ctrls.avgPriority_.switch_cpus.inst::samples       880.00                       # Average QoS priority value for accepted requests
system.mem_ctrls.avgPriority_.switch_cpus.data::samples     31968.00                       # Average QoS priority value for accepted requests
system.mem_ctrls.avgQLat                     32066.43                       # Average queueing delay per DRAM burst
system.mem_ctrls.avgRdBW                        60.65                       # Average DRAM read bandwidth in MiByte/s
system.mem_ctrls.avgRdBWSys                     60.65                       # Average system read bandwidth in MiByte/s
system.mem_ctrls.avgRdQLen                       1.02                       # Average read queue length when enqueuing
system.mem_ctrls.avgWrBW                         4.60                       # Average achieved write bandwidth in MiByte/s
system.mem_ctrls.avgWrBWSys                      4.64                       # Average system write bandwidth in MiByte/s
system.mem_ctrls.avgWrQLen                      12.41                       # Average write queue length when enqueuing
system.mem_ctrls.busUtil                         0.51                       # Data bus utilization in percentage
system.mem_ctrls.busUtilRead                     0.47                       # Data bus utilization in percentage for reads
system.mem_ctrls.busUtilWrite                    0.04                       # Data bus utilization in percentage for writes
system.mem_ctrls.bw_inst_read::.cpu.inst         1846                       # Instruction read bandwidth from this memory (bytes/s)
system.mem_ctrls.bw_inst_read::.switch_cpus.inst      1624843                       # Instruction read bandwidth from this memory (bytes/s)
system.mem_ctrls.bw_inst_read::total          1626689                       # Instruction read bandwidth from this memory (bytes/s)
system.mem_ctrls.bw_read::.cpu.inst              1846                       # Total read bandwidth from this memory (bytes/s)
system.mem_ctrls.bw_read::.cpu.data              1846                       # Total read bandwidth from this memory (bytes/s)
system.mem_ctrls.bw_read::.switch_cpus.inst      1624843                       # Total read bandwidth from this memory (bytes/s)
system.mem_ctrls.bw_read::.switch_cpus.data     59027947                       # Total read bandwidth from this memory (bytes/s)
system.mem_ctrls.bw_read::total              60656483                       # Total read bandwidth from this memory (bytes/s)
system.mem_ctrls.bw_total::.writebacks        4643726                       # Total bandwidth to/from this memory (bytes/s)
system.mem_ctrls.bw_total::.cpu.inst             1846                       # Total bandwidth to/from this memory (bytes/s)
system.mem_ctrls.bw_total::.cpu.data             1846                       # Total bandwidth to/from this memory (bytes/s)
system.mem_ctrls.bw_total::.switch_cpus.inst      1624843                       # Total bandwidth to/from this memory (bytes/s)
system.mem_ctrls.bw_total::.switch_cpus.data     59027947                       # Total bandwidth to/from this memory (bytes/s)
system.mem_ctrls.bw_total::total             65300209                       # Total bandwidth to/from this memory (bytes/s)
system.mem_ctrls.bw_write::.writebacks        4643726                       # Write bandwidth from this memory (bytes/s)
system.mem_ctrls.bw_write::total              4643726                       # Write bandwidth from this memory (bytes/s)
system.mem_ctrls.bytesPerActivate::samples        32313                       # Bytes accessed per row activation
system.mem_ctrls.bytesPerActivate::mean     69.995358                       # Bytes accessed per row activation
system.mem_ctrls.bytesPerActivate::gmean    67.245554                       # Bytes accessed per row activation
system.mem_ctrls.bytesPerActivate::stdev    39.085664                       # Bytes accessed per row activation
system.mem_ctrls.bytesPerActivate::0-127        30385     94.03%     94.03% # Bytes accessed per row activation
system.mem_ctrls.bytesPerActivate::128-255         1735      5.37%     99.40% # Bytes accessed per row activation
system.mem_ctrls.bytesPerActivate::256-383           97      0.30%     99.70% # Bytes accessed per row activation
system.mem_ctrls.bytesPerActivate::384-511           34      0.11%     99.81% # Bytes accessed per row activation
system.mem_ctrls.bytesPerActivate::512-639           17      0.05%     99.86% # Bytes accessed per row activation
system.mem_ctrls.bytesPerActivate::640-767           15      0.05%     99.91% # Bytes accessed per row activation
system.mem_ctrls.bytesPerActivate::768-895            7      0.02%     99.93% # Bytes accessed per row activation
system.mem_ctrls.bytesPerActivate::896-1023            5      0.02%     99.94% # Bytes accessed per row activation
system.mem_ctrls.bytesPerActivate::1024-1151           18      0.06%    100.00% # Bytes accessed per row activation
system.mem_ctrls.bytesPerActivate::total        32313                       # Bytes accessed per row activation
system.mem_ctrls.bytesReadDRAM                2102272                       # Total number of bytes read from DRAM
system.mem_ctrls.bytesReadSys                 2102336                       # Total read bytes from the system interface side
system.mem_ctrls.bytesReadWrQ                      64                       # Total number of bytes read from write queue
system.mem_ctrls.bytesWritten                  159616                       # Total number of bytes written to DRAM
system.mem_ctrls.bytesWrittenSys               160960                       # Total written bytes from the system interface side
system.mem_ctrls.bytes_inst_read::.cpu.inst           64                       # Number of instructions bytes read from this memory
system.mem_ctrls.bytes_inst_read::.switch_cpus.inst        56320                       # Number of instructions bytes read from this memory
system.mem_ctrls.bytes_inst_read::total         56384                       # Number of instructions bytes read from this memory
system.mem_ctrls.bytes_read::.cpu.inst             64                       # Number of bytes read from this memory
system.mem_ctrls.bytes_read::.cpu.data             64                       # Number of bytes read from this memory
system.mem_ctrls.bytes_read::.switch_cpus.inst        56320                       # Number of bytes read from this memory
system.mem_ctrls.bytes_read::.switch_cpus.data      2046016                       # Number of bytes read from this memory
system.mem_ctrls.bytes_read::total            2102464                       # Number of bytes read from this memory
system.mem_ctrls.bytes_written::.writebacks       160960                       # Number of bytes written to this memory
system.mem_ctrls.bytes_written::total          160960                       # Number of bytes written to this memory
system.mem_ctrls.masterReadAccesses::.switch_cpus.inst          880                       # Per-master read serviced memory accesses
system.mem_ctrls.masterReadAccesses::.switch_cpus.data        31969                       # Per-master read serviced memory accesses
system.mem_ctrls.masterReadAvgLat::.switch_cpus.inst     34994.32                       # Per-master read average memory access latency
system.mem_ctrls.masterReadAvgLat::.switch_cpus.data     51250.37                       # Per-master read average memory access latency
system.mem_ctrls.masterReadBytes::.switch_cpus.inst        56320                       # Per-master bytes read from memory
system.mem_ctrls.masterReadBytes::.switch_cpus.data      2045952                       # Per-master bytes read from memory
system.mem_ctrls.masterReadRate::.switch_cpus.inst 1624842.620418198872                       # Per-master bytes read from memory rate (Bytes/sec)
system.mem_ctrls.masterReadRate::.switch_cpus.data 59026101.010828390718                       # Per-master bytes read from memory rate (Bytes/sec)
system.mem_ctrls.masterReadTotalLat::.switch_cpus.inst     30795000                       # Per-master read total memory access latency
system.mem_ctrls.masterReadTotalLat::.switch_cpus.data   1638423000                       # Per-master read total memory access latency
system.mem_ctrls.masterWriteAccesses::.writebacks         2515                       # Per-master write serviced memory accesses
system.mem_ctrls.masterWriteAvgLat::.writebacks 164329967.30                       # Per-master write average memory access latency
system.mem_ctrls.masterWriteBytes::.writebacks       159616                       # Per-master bytes write to memory
system.mem_ctrls.masterWriteRate::.writebacks 4604951.699230668135                       # Per-master bytes write to memory rate (Bytes/sec)
system.mem_ctrls.masterWriteTotalLat::.writebacks 413289867750                       # Per-master write total memory access latency
system.mem_ctrls.mergedWrBursts                     0                       # Number of DRAM write bursts merged with an existing one
system.mem_ctrls.neitherReadNorWriteReqs            0                       # Number of requests that are neither read nor write
system.mem_ctrls.numRdRetry                         0                       # Number of times read queue was full causing retry
system.mem_ctrls.numReadWriteTurnArounds          143                       # Number of turnarounds from READ to WRITE
system.mem_ctrls.numStayReadState               76716                       # Number of times bus staying in READ state
system.mem_ctrls.numStayWriteState               2353                       # Number of times bus staying in WRITE state
system.mem_ctrls.numWrRetry                         0                       # Number of times write queue was full causing retry
system.mem_ctrls.numWriteReadTurnArounds          143                       # Number of turnarounds from WRITE to READ
system.mem_ctrls.num_reads::.cpu.inst               1                       # Number of read requests responded to by this memory
system.mem_ctrls.num_reads::.cpu.data               1                       # Number of read requests responded to by this memory
system.mem_ctrls.num_reads::.switch_cpus.inst          880                       # Number of read requests responded to by this memory
system.mem_ctrls.num_reads::.switch_cpus.data        31969                       # Number of read requests responded to by this memory
system.mem_ctrls.num_reads::total               32851                       # Number of read requests responded to by this memory
system.mem_ctrls.num_writes::.writebacks         2515                       # Number of write requests responded to by this memory
system.mem_ctrls.num_writes::total               2515                       # Number of write requests responded to by this memory
system.mem_ctrls.pageHitRate                     8.56                       # Row buffer hit rate, read and write combined
system.mem_ctrls.peakBW                      12800.00                       # Theoretical peak bandwidth in MiByte/s
system.mem_ctrls.perBankRdBursts::0              2065                       # Per bank write bursts
system.mem_ctrls.perBankRdBursts::1              1988                       # Per bank write bursts
system.mem_ctrls.perBankRdBursts::2              1981                       # Per bank write bursts
system.mem_ctrls.perBankRdBursts::3              2081                       # Per bank write bursts
system.mem_ctrls.perBankRdBursts::4              2135                       # Per bank write bursts
system.mem_ctrls.perBankRdBursts::5              2078                       # Per bank write bursts
system.mem_ctrls.perBankRdBursts::6              2177                       # Per bank write bursts
system.mem_ctrls.perBankRdBursts::7              2062                       # Per bank write bursts
system.mem_ctrls.perBankRdBursts::8              2070                       # Per bank write bursts
system.mem_ctrls.perBankRdBursts::9              2011                       # Per bank write bursts
system.mem_ctrls.perBankRdBursts::10             2061                       # Per bank write bursts
system.mem_ctrls.perBankRdBursts::11             2080                       # Per bank write bursts
system.mem_ctrls.perBankRdBursts::12             2020                       # Per bank write bursts
system.mem_ctrls.perBankRdBursts::13             2059                       # Per bank write bursts
system.mem_ctrls.perBankRdBursts::14             1931                       # Per bank write bursts
system.mem_ctrls.perBankRdBursts::15             2049                       # Per bank write bursts
system.mem_ctrls.perBankWrBursts::0               156                       # Per bank write bursts
system.mem_ctrls.perBankWrBursts::1               138                       # Per bank write bursts
system.mem_ctrls.perBankWrBursts::2               117                       # Per bank write bursts
system.mem_ctrls.perBankWrBursts::3               159                       # Per bank write bursts
system.mem_ctrls.perBankWrBursts::4               195                       # Per bank write bursts
system.mem_ctrls.perBankWrBursts::5               155                       # Per bank write bursts
system.mem_ctrls.perBankWrBursts::6               200                       # Per bank write bursts
system.mem_ctrls.perBankWrBursts::7               147                       # Per bank write bursts
system.mem_ctrls.perBankWrBursts::8               184                       # Per bank write bursts
system.mem_ctrls.perBankWrBursts::9               145                       # Per bank write bursts
system.mem_ctrls.perBankWrBursts::10              156                       # Per bank write bursts
system.mem_ctrls.perBankWrBursts::11              159                       # Per bank write bursts
[...]
system.switch_cpus.iq.fu_full::IntDiv               0      0.00%     36.84% # attempts to use FU when none available
system.switch_cpus.iq.fu_full::FloatAdd             0      0.00%     36.84% # attempts to use FU when none available
system.switch_cpus.iq.fu_full::FloatCmp             0      0.00%     36.84% # attempts to use FU when none available
system.switch_cpus.iq.fu_full::FloatCvt             0      0.00%     36.84% # attempts to use FU when none available
system.switch_cpus.iq.fu_full::FloatMult            0      0.00%     36.84% # attempts to use FU when none available
system.switch_cpus.iq.fu_full::FloatMultAcc            0      0.00%     36.84% # attempts to use FU when none available
system.switch_cpus.iq.fu_full::FloatDiv             0      0.00%     36.84% # attempts to use FU when none available
system.switch_cpus.iq.fu_full::FloatMisc            0      0.00%     36.84% # attempts to use FU when none available
system.switch_cpus.iq.fu_full::FloatSqrt            0      0.00%     36.84% # attempts to use FU when none available
system.switch_cpus.iq.fu_full::SimdAdd              0      0.00%     36.84% # attempts to use FU when none available
system.switch_cpus.iq.fu_full::SimdAddAcc            0      0.00%     36.84% # attempts to use FU when none available
system.switch_cpus.iq.fu_full::SimdAlu              0      0.00%     36.84% # attempts to use FU when none available
system.switch_cpus.iq.fu_full::SimdCmp              0      0.00%     36.84% # attempts to use FU when none available
system.switch_cpus.iq.fu_full::SimdCvt              0      0.00%     36.84% # attempts to use FU when none available
system.switch_cpus.iq.fu_full::SimdMisc             0      0.00%     36.84% # attempts to use FU when none available
system.switch_cpus.iq.fu_full::SimdMult             0      0.00%     36.84% # attempts to use FU when none available
system.switch_cpus.iq.fu_full::SimdMultAcc            0      0.00%     36.84% # attempts to use FU when none available
system.switch_cpus.iq.fu_full::SimdShift            0      0.00%     36.84% # attempts to use FU when none available
system.switch_cpus.iq.fu_full::SimdShiftAcc            0      0.00%     36.84% # attempts to use FU when none available
system.switch_cpus.iq.fu_full::SimdSqrt             0      0.00%     36.84% # attempts to use FU when none available
system.switch_cpus.iq.fu_full::SimdFloatAdd            0      0.00%     36.84% # attempts to use FU when none available
system.switch_cpus.iq.fu_full::SimdFloatAlu            0      0.00%     36.84% # attempts to use FU when none available
system.switch_cpus.iq.fu_full::SimdFloatCmp            0      0.00%     36.84% # attempts to use FU when none available
system.switch_cpus.iq.fu_full::SimdFloatCvt            0      0.00%     36.84% # attempts to use FU when none available
system.switch_cpus.iq.fu_full::SimdFloatDiv            0      0.00%     36.84% # attempts to use FU when none available
system.switch_cpus.iq.fu_full::SimdFloatMisc            0      0.00%     36.84% # attempts to use FU when none available
system.switch_cpus.iq.fu_full::SimdFloatMult            0      0.00%     36.84% # attempts to use FU when none available
system.switch_cpus.iq.fu_full::SimdFloatMultAcc            0      0.00%     36.84% # attempts to use FU when none available
system.switch_cpus.iq.fu_full::SimdFloatSqrt            0      0.00%     36.84% # attempts to use FU when none available
system.switch_cpus.iq.fu_full::SimdAes              0      0.00%     36.84% # attempts to use FU when none available
system.switch_cpus.iq.fu_full::SimdAesMix            0      0.00%     36.84% # attempts to use FU when none available
system.switch_cpus.iq.fu_full::SimdSha1Hash            0      0.00%     36.84% # attempts to use FU when none available
system.switch_cpus.iq.fu_full::SimdSha1Hash2            0      0.00%     36.84% # attempts to use FU when none available
system.switch_cpus.iq.fu_full::SimdSha256Hash            0      0.00%     36.84% # attempts to use FU when none available
system.switch_cpus.iq.fu_full::SimdSha256Hash2            0      0.00%     36.84% # attempts to use FU when none available
system.switch_cpus.iq.fu_full::SimdShaSigma2            0      0.00%     36.84% # attempts to use FU when none available
system.switch_cpus.iq.fu_full::SimdShaSigma3            0      0.00%     36.84% # attempts to use FU when none available
system.switch_cpus.iq.fu_full::MemRead        1281298     40.45%     77.29% # attempts to use FU when none available
system.switch_cpus.iq.fu_full::MemWrite        718552     22.69%     99.98% # attempts to use FU when none available
system.switch_cpus.iq.fu_full::FloatMemRead            0      0.00%     99.98% # attempts to use FU when none available
system.switch_cpus.iq.fu_full::FloatMemWrite          581      0.02%    100.00% # attempts to use FU when none available
system.switch_cpus.iq.fu_full::IprAccess            0      0.00%    100.00% # attempts to use FU when none available
system.switch_cpus.iq.fu_full::InstPrefetch            0      0.00%    100.00% # attempts to use FU when none available
system.switch_cpus.iq.int_alu_accesses      133777293                       # Number of integer alu accesses
system.switch_cpus.iq.int_inst_queue_reads    334222772                       # Number of integer instruction queue reads
system.switch_cpus.iq.int_inst_queue_wakeup_accesses    125535958                       # Number of integer instruction queue wakeup accesses
system.switch_cpus.iq.int_inst_queue_writes    203422967                       # Number of integer instruction queue writes
system.switch_cpus.iq.iqInstsAdded          152099552                       # Number of instructions added to the IQ (excludes non-spec)
system.switch_cpus.iq.iqInstsIssued         131469687                       # Number of instructions issued
system.switch_cpus.iq.iqNonSpecInstsAdded            2                       # Number of non-speculative instructions added to the IQ
system.switch_cpus.iq.iqSquashedInstsExamined     52099531                       # Number of squashed instructions iterated over during squash; mainly for profiling
system.switch_cpus.iq.iqSquashedInstsIssued       404233                       # Number of squashed instructions issued
system.switch_cpus.iq.iqSquashedNonSpecRemoved            2                       # Number of squashed non-spec instructions that were removed
system.switch_cpus.iq.iqSquashedOperandsExamined     32158189                       # Number of squashed operands that are examined and possibly removed from graph
system.switch_cpus.iq.issued_per_cycle::samples     69231007                       # Number of insts issued each cycle
system.switch_cpus.iq.issued_per_cycle::mean     1.899000                       # Number of insts issued each cycle
system.switch_cpus.iq.issued_per_cycle::stdev     2.119995                       # Number of insts issued each cycle
system.switch_cpus.iq.issued_per_cycle::underflows            0      0.00%      0.00% # Number of insts issued each cycle
system.switch_cpus.iq.issued_per_cycle::0     28096544     40.58%     40.58% # Number of insts issued each cycle
system.switch_cpus.iq.issued_per_cycle::1      9450924     13.65%     54.24% # Number of insts issued each cycle
system.switch_cpus.iq.issued_per_cycle::2      7920745     11.44%     65.68% # Number of insts issued each cycle
system.switch_cpus.iq.issued_per_cycle::3      7580216     10.95%     76.63% # Number of insts issued each cycle
system.switch_cpus.iq.issued_per_cycle::4      5885104      8.50%     85.13% # Number of insts issued each cycle
system.switch_cpus.iq.issued_per_cycle::5      4848609      7.00%     92.13% # Number of insts issued each cycle
system.switch_cpus.iq.issued_per_cycle::6      3208715      4.63%     96.76% # Number of insts issued each cycle
system.switch_cpus.iq.issued_per_cycle::7      1520326      2.20%     98.96% # Number of insts issued each cycle
system.switch_cpus.iq.issued_per_cycle::8       719824      1.04%    100.00% # Number of insts issued each cycle
system.switch_cpus.iq.issued_per_cycle::overflows            0      0.00%    100.00% # Number of insts issued each cycle
system.switch_cpus.iq.issued_per_cycle::min_value            0                       # Number of insts issued each cycle
system.switch_cpus.iq.issued_per_cycle::max_value            8                       # Number of insts issued each cycle
system.switch_cpus.iq.issued_per_cycle::total     69231007                       # Number of insts issued each cycle
system.switch_cpus.iq.rate                   1.896463                       # Inst issue rate
system.switch_cpus.iq.vec_alu_accesses              0                       # Number of vector alu accesses
system.switch_cpus.iq.vec_inst_queue_reads            0                       # Number of vector instruction queue reads
system.switch_cpus.iq.vec_inst_queue_wakeup_accesses            0                       # Number of vector instruction queue wakeup accesses
system.switch_cpus.iq.vec_inst_queue_writes            0                       # Number of vector instruction queue writes
system.switch_cpus.itb.data_accesses                0                       # DTB accesses
system.switch_cpus.itb.data_acv                     0                       # DTB access violations
system.switch_cpus.itb.data_hits                    0                       # DTB hits
system.switch_cpus.itb.data_misses                  0                       # DTB misses
system.switch_cpus.itb.fetch_accesses        22917750                       # ITB accesses
system.switch_cpus.itb.fetch_acv                    0                       # ITB acv
system.switch_cpus.itb.fetch_hits            22917287                       # ITB hits
system.switch_cpus.itb.fetch_misses               463                       # ITB misses
system.switch_cpus.itb.pwrStateResidencyTicks::UNDEFINED 2203232138000                       # Cumulative time (in ticks) in various power states
system.switch_cpus.itb.read_accesses                0                       # DTB read accesses
system.switch_cpus.itb.read_acv                     0                       # DTB read access violations
system.switch_cpus.itb.read_hits                    0                       # DTB read hits
system.switch_cpus.itb.read_misses                  0                       # DTB read misses
system.switch_cpus.itb.write_accesses               0                       # DTB write accesses
system.switch_cpus.itb.write_acv                    0                       # DTB write access violations
system.switch_cpus.itb.write_hits                   0                       # DTB write hits
system.switch_cpus.itb.write_misses                 0                       # DTB write misses
system.switch_cpus.memDep0.conflictingLoads       894937                       # Number of conflicting loads.
system.switch_cpus.memDep0.conflictingStores       371357                       # Number of conflicting stores.
system.switch_cpus.memDep0.insertedLoads     35548186                       # Number of loads inserted to the mem dependence unit.
system.switch_cpus.memDep0.insertedStores     10449647                       # Number of stores inserted to the mem dependence unit.
system.switch_cpus.misc_regfile_reads           99370                       # number of misc regfile reads
system.switch_cpus.misc_regfile_writes          49682                       # number of misc regfile writes
system.switch_cpus.numCycles                 69323617                       # number of cpu cycles simulated
system.switch_cpus.numWorkItemsCompleted            0                       # number of work items this cpu completed
system.switch_cpus.numWorkItemsStarted              0                       # number of work items this cpu started
system.switch_cpus.pwrStateResidencyTicks::OFF  34661818500                       # Cumulative time (in ticks) in various power states
system.switch_cpus.rename.BlockCycles         7783611                       # Number of cycles rename is blocking
system.switch_cpus.rename.CommittedMaps      77352212                       # Number of HB maps that are committed
system.switch_cpus.rename.IQFullEvents          81197                       # Number of times rename has blocked due to IQ full
system.switch_cpus.rename.IdleCycles         24640151                       # Number of cycles rename is idle
system.switch_cpus.rename.LQFullEvents        1727219                       # Number of times rename has blocked due to LQ full
system.switch_cpus.rename.ROBFullEvents         32246                       # Number of times rename has blocked due to ROB full
system.switch_cpus.rename.RenameLookups     215115975                       # Number of register rename lookups that rename has made
system.switch_cpus.rename.RenamedInsts      164609759                       # Number of instructions processed by rename
system.switch_cpus.rename.RenamedOperands    124621551                       # Number of destination operands rename has renamed
system.switch_cpus.rename.RunCycles          28291919                       # Number of cycles rename is running
system.switch_cpus.rename.SQFullEvents          54325                       # Number of times rename has blocked due to SQ full
system.switch_cpus.rename.SquashCycles        1828497                       # Number of cycles rename is squashing
system.switch_cpus.rename.UnblockCycles       2221520                       # Number of cycles rename is unblocking
system.switch_cpus.rename.UndoneMaps         47269321                       # Number of HB maps that are undone due to squashing
system.switch_cpus.rename.fp_rename_lookups       518038                       # Number of floating rename lookups
system.switch_cpus.rename.int_rename_lookups    214548249                       # Number of integer rename lookups
system.switch_cpus.rename.serializeStallCycles      4465308                       # count of cycles rename stalled for serializing inst
system.switch_cpus.rename.serializingInsts       219953                       # count of serializing insts renamed
system.switch_cpus.rename.skidInsts           1841443                       # count of insts added to the skid buffer
system.switch_cpus.rename.tempSerializingInsts            0                       # count of temporary serializing insts renamed
system.switch_cpus.rob.rob_reads            207309949                       # The number of ROB reads
system.switch_cpus.rob.rob_writes           311586965                       # The number of ROB writes
system.switch_cpus.timesIdled                   12624                       # Number of times that the entire CPU went into an idle state and unscheduled itself
system.tol2bus.pkt_count_system.cpu.icache.mem_side::system.l2.cpu_side       681559                       # Packet count per connected master and slave (bytes)
system.tol2bus.pkt_count_system.cpu.dcache.mem_side::system.l2.cpu_side       424393                       # Packet count per connected master and slave (bytes)
system.tol2bus.pkt_count::total               1105952                       # Packet count per connected master and slave (bytes)
system.tol2bus.pkt_size_system.cpu.icache.mem_side::system.l2.cpu_side     29068928                       # Cumulative packet size per connected master and slave (bytes)
system.tol2bus.pkt_size_system.cpu.dcache.mem_side::system.l2.cpu_side     14671488                       # Cumulative packet size per connected master and slave (bytes)
system.tol2bus.pkt_size::total               43740416                       # Cumulative packet size per connected master and slave (bytes)
system.tol2bus.pwrStateResidencyTicks::UNDEFINED 2203232138000                       # Cumulative time (in ticks) in various power states
system.tol2bus.reqLayer0.occupancy          684518000                       # Layer occupancy (ticks)
system.tol2bus.reqLayer0.utilization              2.0                       # Layer utilization (%)
system.tol2bus.respLayer0.occupancy         341077912                       # Layer occupancy (ticks)
system.tol2bus.respLayer0.utilization             1.0                       # Layer utilization (%)
system.tol2bus.respLayer1.occupancy         210866495                       # Layer occupancy (ticks)
system.tol2bus.respLayer1.utilization             0.6                       # Layer utilization (%)
system.tol2bus.snoopTraffic                    160960                       # Total snoop traffic (bytes)
system.tol2bus.snoop_fanout::samples           372263                       # Request fanout histogram
system.tol2bus.snoop_fanout::mean            0.000102                       # Request fanout histogram
system.tol2bus.snoop_fanout::stdev           0.010103                       # Request fanout histogram
system.tol2bus.snoop_fanout::underflows             0      0.00%      0.00% # Request fanout histogram
system.tol2bus.snoop_fanout::0                 372225     99.99%     99.99% # Request fanout histogram
system.tol2bus.snoop_fanout::1                     38      0.01%    100.00% # Request fanout histogram
system.tol2bus.snoop_fanout::2                      0      0.00%    100.00% # Request fanout histogram
system.tol2bus.snoop_fanout::overflows              0      0.00%    100.00% # Request fanout histogram
system.tol2bus.snoop_fanout::min_value              0                       # Request fanout histogram
system.tol2bus.snoop_fanout::max_value              1                       # Request fanout histogram
system.tol2bus.snoop_fanout::total             372263                       # Request fanout histogram
system.tol2bus.snoop_filter.hit_multi_requests            0                       # Number of requests hitting in the snoop filter with multiple (>1) holders of the requested data.
system.tol2bus.snoop_filter.hit_multi_snoops            0                       # Number of snoops hitting in the snoop filter with multiple (>1) holders of the requested data.
system.tol2bus.snoop_filter.hit_single_requests       367968                       # Number of requests hitting in the snoop filter with a single holder of the requested data.
system.tol2bus.snoop_filter.hit_single_snoops           38                       # Number of snoops hitting in the snoop filter with a single holder of the requested data.
system.tol2bus.snoop_filter.tot_requests       736960                       # Total number of requests made to the snoop filter.
system.tol2bus.snoop_filter.tot_snoops             38                       # Total number of snoops made to the snoop filter.
system.tol2bus.snoops                            3271                       # Total snoops (count)
system.tol2bus.trans_dist::ReadResp            323510                       # Transaction distribution
system.tol2bus.trans_dist::WritebackDirty        91709                       # Transaction distribution
system.tol2bus.trans_dist::WritebackClean       226845                       # Transaction distribution
system.tol2bus.trans_dist::CleanEvict           52685                       # Transaction distribution
system.tol2bus.trans_dist::ReadExReq            43895                       # Transaction distribution
system.tol2bus.trans_dist::ReadExResp           43895                       # Transaction distribution
system.tol2bus.trans_dist::ReadCleanReq        227357                       # Transaction distribution
system.tol2bus.trans_dist::ReadSharedReq        96153                       # Transaction distribution
system.tol2bus.trans_dist::InvalidateReq         1587                       # Transaction distribution
system.tol2bus.trans_dist::InvalidateResp         1587                       # Transaction distribution
system.voltage_domain.voltage                       1                       # Voltage in Volts

---------- End Simulation Statistics   ----------
