
******************************directory****************************
spec_dir: /home/cuihongwei/experiment/mcpat-gem5-master/spec2006/benchspec/CPU2006
run_dir:  /home/cuihongwei/experiment/mcpat-gem5-master/spec2006/benchspec/CPU2006/462.libquantum/run/run_base_ref_amd64.0001
gem5_dir: /home/cuihongwei/experiment/experiment-gem5/raw-gem5
gem5_output_dir: /home/cuihongwei/experiment/experiment-gem5/raw-gem5/output/462.libquantum/alpha-OLD-462.libquantum-input1-190330-215851
benchmark_output:/home/cuihongwei/experiment/experiment-gem5/raw-gem5/output/462.libquantum/alpha-OLD-462.libquantum-input1-190330-215851
checkpoint_dir:/home/cuihongwei/experiment/experiment-gem5/pubs-gem5/output/alpha-462.libquantum-checkpoint-input1

******************************benchmark****************************
target:     462.libquantum
executable: libquantum
args:       1397 8
input:      
output:     /home/cuihongwei/experiment/experiment-gem5/raw-gem5/output/462.libquantum/alpha-OLD-462.libquantum-input1-190330-215851/ref.out
errout:     /home/cuihongwei/experiment/experiment-gem5/raw-gem5/output/462.libquantum/alpha-OLD-462.libquantum-input1-190330-215851/ref.err

******************************gem5****************************
arch:       /home/cuihongwei/experiment/experiment-gem5/raw-gem5/build/ALPHA/gem5.opt
config:     /home/cuihongwei/experiment/experiment-gem5/raw-gem5/configs/example/se.py
args:       --num-cpus=1 --mem-size=8GB --caches --l1d_size=32kB --l1d_assoc=8 --l1i_size=32kB --l1i_assoc=8 --l2cache --l2_size=2MB --l2_assoc=16 --at-instruction --checkpoint-restore=5000000000 --maxinsts=100000000 --cpu-type=DerivO3CPU
debugFlag:  --debug-flags=ShowRunning

******************************simulation****************************
start time:(year-mon-day hour-minute-second)19-03-30 21-58-51
gem5 Simulator System.  http://gem5.org
gem5 is copyrighted software; use the --copyright option for details.

gem5 compiled Mar 30 2019 20:24:53
gem5 started Mar 30 2019 21:58:51
gem5 executing on mprc-R730, pid 29555
command line: /home/cuihongwei/experiment/experiment-gem5/raw-gem5/build/ALPHA/gem5.opt --outdir=/home/cuihongwei/experiment/experiment-gem5/raw-gem5/output/462.libquantum/alpha-OLD-462.libquantum-input1-190330-215851 --debug-flags=ShowRunning /home/cuihongwei/experiment/experiment-gem5/raw-gem5/configs/example/se.py --num-cpus=1 --mem-size=8GB --caches --l1d_size=32kB --l1d_assoc=8 --l1i_size=32kB --l1i_assoc=8 --l2cache --l2_size=2MB --l2_assoc=16 --at-instruction --checkpoint-restore=5000000000 --maxinsts=100000000 --cpu-type=DerivO3CPU --checkpoint-dir=/home/cuihongwei/experiment/experiment-gem5/pubs-gem5/output/alpha-462.libquantum-checkpoint-input1 --cmd=/home/cuihongwei/experiment/mcpat-gem5-master/spec2006/benchspec/CPU2006/462.libquantum/run/build_peak_alpha.0001/libquantum '--options=1397 8' --output=/home/cuihongwei/experiment/experiment-gem5/raw-gem5/output/462.libquantum/alpha-OLD-462.libquantum-input1-190330-215851/ref.out --input= --errout=/home/cuihongwei/experiment/experiment-gem5/raw-gem5/output/462.libquantum/alpha-OLD-462.libquantum-input1-190330-215851/ref.err

Global frequency set at 1000000000000 ticks per second
Switch at curTick count:10000
Switched CPUS @ tick 3543119560500
switching cpus
**** REAL SIMULATION ****
3543119561000: system.switch_cpus: Raw Gem5 Running in Cycle:               0, Inst:               0
3543169587000: system.switch_cpus: Raw Gem5 Running in Cycle:          100000, Inst:           78342
3543219587000: system.switch_cpus: Raw Gem5 Running in Cycle:          200000, Inst:          156678
3543269587000: system.switch_cpus: Raw Gem5 Running in Cycle:          300000, Inst:          234582
3543319587000: system.switch_cpus: Raw Gem5 Running in Cycle:          400000, Inst:          312918
3543369587000: system.switch_cpus: Raw Gem5 Running in Cycle:          500000, Inst:          390534
3543419587000: system.switch_cpus: Raw Gem5 Running in Cycle:          600000, Inst:          468582
3543470283000: system.switch_cpus: Raw Gem5 Running in Cycle:          700000, Inst:          546031
3543520283000: system.switch_cpus: Raw Gem5 Running in Cycle:          800000, Inst:          623791
3543570283000: system.switch_cpus: Raw Gem5 Running in Cycle:          900000, Inst:          701263
3543620283000: system.switch_cpus: Raw Gem5 Running in Cycle:         1000000, Inst:          779455
3543670283000: system.switch_cpus: Raw Gem5 Running in Cycle:         1100000, Inst:          857647
3543720283000: system.switch_cpus: Raw Gem5 Running in Cycle:         1200000, Inst:          935551
3543770283000: system.switch_cpus: Raw Gem5 Running in Cycle:         1300000, Inst:         1013887
3543820283000: system.switch_cpus: Raw Gem5 Running in Cycle:         1400000, Inst:         1092223
3543870283000: system.switch_cpus: Raw Gem5 Running in Cycle:         1500000, Inst:         1170019
3543920283000: system.switch_cpus: Raw Gem5 Running in Cycle:         1600000, Inst:         1248319
3543970283000: system.switch_cpus: Raw Gem5 Running in Cycle:         1700000, Inst:         1326079
3544020283000: system.switch_cpus: Raw Gem5 Running in Cycle:         1800000, Inst:         1404055
3544070283000: system.switch_cpus: Raw Gem5 Running in Cycle:         1900000, Inst:         1482319
3544120283000: system.switch_cpus: Raw Gem5 Running in Cycle:         2000000, Inst:         1560115
3544170283000: system.switch_cpus: Raw Gem5 Running in Cycle:         2100000, Inst:         1638415
3544220283000: system.switch_cpus: Raw Gem5 Running in Cycle:         2200000, Inst:         1716751
3544270283000: system.switch_cpus: Raw Gem5 Running in Cycle:         2300000, Inst:         1794655
3544320283000: system.switch_cpus: Raw Gem5 Running in Cycle:         2400000, Inst:         1872913
3544370283000: system.switch_cpus: Raw Gem5 Running in Cycle:         2500000, Inst:         1951183
3544420283000: system.switch_cpus: Raw Gem5 Running in Cycle:         2600000, Inst:         2028655
3544470283000: system.switch_cpus: Raw Gem5 Running in Cycle:         2700000, Inst:         2106847
3544520283000: system.switch_cpus: Raw Gem5 Running in Cycle:         2800000, Inst:         2185039
3544570283000: system.switch_cpus: Raw Gem5 Running in Cycle:         2900000, Inst:         2262943
3544620283000: system.switch_cpus: Raw Gem5 Running in Cycle:         3000000, Inst:         2341279
3544670283000: system.switch_cpus: Raw Gem5 Running in Cycle:         3100000, Inst:         2419615
3544720283000: system.switch_cpus: Raw Gem5 Running in Cycle:         3200000, Inst:         2497477
3544770283000: system.switch_cpus: Raw Gem5 Running in Cycle:         3300000, Inst:         2575711
3544820283000: system.switch_cpus: Raw Gem5 Running in Cycle:         3400000, Inst:         2653183
3544870283000: system.switch_cpus: Raw Gem5 Running in Cycle:         3500000, Inst:         2731488
3544920283000: system.switch_cpus: Raw Gem5 Running in Cycle:         3600000, Inst:         2809711
3544970283000: system.switch_cpus: Raw Gem5 Running in Cycle:         3700000, Inst:         2887573
3545020283000: system.switch_cpus: Raw Gem5 Running in Cycle:         3800000, Inst:         2965807
3545070283000: system.switch_cpus: Raw Gem5 Running in Cycle:         3900000, Inst:         3043711
3545120283000: system.switch_cpus: Raw Gem5 Running in Cycle:         4000000, Inst:         3122047
3545170283000: system.switch_cpus: Raw Gem5 Running in Cycle:         4100000, Inst:         3200383
3545220283000: system.switch_cpus: Raw Gem5 Running in Cycle:         4200000, Inst:         3277711
3545270283000: system.switch_cpus: Raw Gem5 Running in Cycle:         4300000, Inst:         3355903
3545320283000: system.switch_cpus: Raw Gem5 Running in Cycle:         4400000, Inst:         3434239
3545370283000: system.switch_cpus: Raw Gem5 Running in Cycle:         4500000, Inst:         3511999
3545420283000: system.switch_cpus: Raw Gem5 Running in Cycle:         4600000, Inst:         3590335
3545470283000: system.switch_cpus: Raw Gem5 Running in Cycle:         4700000, Inst:         3668527
3545520283000: system.switch_cpus: Raw Gem5 Running in Cycle:         4800000, Inst:         3746575
3545570283000: system.switch_cpus: Raw Gem5 Running in Cycle:         4900000, Inst:         3824911
3545620283000: system.switch_cpus: Raw Gem5 Running in Cycle:         5000000, Inst:         3902239
3545670283000: system.switch_cpus: Raw Gem5 Running in Cycle:         5100000, Inst:         3980539
3545720283000: system.switch_cpus: Raw Gem5 Running in Cycle:         5200000, Inst:         4058767
3545770283000: system.switch_cpus: Raw Gem5 Running in Cycle:         5300000, Inst:         4136671
3545820283000: system.switch_cpus: Raw Gem5 Running in Cycle:         5400000, Inst:         4214913
3545870283000: system.switch_cpus: Raw Gem5 Running in Cycle:         5500000, Inst:         4293199
3545920283000: system.switch_cpus: Raw Gem5 Running in Cycle:         5600000, Inst:         4371103
3545970283000: system.switch_cpus: Raw Gem5 Running in Cycle:         5700000, Inst:         4449439
3546020283000: system.switch_cpus: Raw Gem5 Running in Cycle:         5800000, Inst:         4527775
3546070283000: system.switch_cpus: Raw Gem5 Running in Cycle:         5900000, Inst:         4605103
3546120283000: system.switch_cpus: Raw Gem5 Running in Cycle:         6000000, Inst:         4683300
3546170283000: system.switch_cpus: Raw Gem5 Running in Cycle:         6100000, Inst:         4761631
3546220283000: system.switch_cpus: Raw Gem5 Running in Cycle:         6200000, Inst:         4839477
3546270283000: system.switch_cpus: Raw Gem5 Running in Cycle:         6300000, Inst:         4917727
3546320283000: system.switch_cpus: Raw Gem5 Running in Cycle:         6400000, Inst:         4995717
3546370283000: system.switch_cpus: Raw Gem5 Running in Cycle:         6500000, Inst:         5073967
3546420283000: system.switch_cpus: Raw Gem5 Running in Cycle:         6600000, Inst:         5152303
3546470283000: system.switch_cpus: Raw Gem5 Running in Cycle:         6700000, Inst:         5229631
3546520283000: system.switch_cpus: Raw Gem5 Running in Cycle:         6800000, Inst:         5307823
3546570283000: system.switch_cpus: Raw Gem5 Running in Cycle:         6900000, Inst:         5385727
3546620283000: system.switch_cpus: Raw Gem5 Running in Cycle:         7000000, Inst:         5464063
3546670283000: system.switch_cpus: Raw Gem5 Running in Cycle:         7100000, Inst:         5542393
3546720283000: system.switch_cpus: Raw Gem5 Running in Cycle:         7200000, Inst:         5620236
3546770283000: system.switch_cpus: Raw Gem5 Running in Cycle:         7300000, Inst:         5698495
3546820283000: system.switch_cpus: Raw Gem5 Running in Cycle:         7400000, Inst:         5776831
3546870283000: system.switch_cpus: Raw Gem5 Running in Cycle:         7500000, Inst:         5854159
3546920283000: system.switch_cpus: Raw Gem5 Running in Cycle:         7600000, Inst:         5932464
3546970283000: system.switch_cpus: Raw Gem5 Running in Cycle:         7700000, Inst:         6010687
3547020283000: system.switch_cpus: Raw Gem5 Running in Cycle:         7800000, Inst:         6088591
3547070283000: system.switch_cpus: Raw Gem5 Running in Cycle:         7900000, Inst:         6166927
3547120283000: system.switch_cpus: Raw Gem5 Running in Cycle:         8000000, Inst:         6244831
3547170283000: system.switch_cpus: Raw Gem5 Running in Cycle:         8100000, Inst:         6323023
3547220283000: system.switch_cpus: Raw Gem5 Running in Cycle:         8200000, Inst:         6401359
3547270283000: system.switch_cpus: Raw Gem5 Running in Cycle:         8300000, Inst:         6478831
3547320283000: system.switch_cpus: Raw Gem5 Running in Cycle:         8400000, Inst:         6557023
3547370283000: system.switch_cpus: Raw Gem5 Running in Cycle:         8500000, Inst:         6635215
3547420283000: system.switch_cpus: Raw Gem5 Running in Cycle:         8600000, Inst:         6713119
3547470283000: system.switch_cpus: Raw Gem5 Running in Cycle:         8700000, Inst:         6791455
3547520283000: system.switch_cpus: Raw Gem5 Running in Cycle:         8800000, Inst:         6869719
3547570283000: system.switch_cpus: Raw Gem5 Running in Cycle:         8900000, Inst:         6947695
3547620283000: system.switch_cpus: Raw Gem5 Running in Cycle:         9000000, Inst:         7025887
3547670283000: system.switch_cpus: Raw Gem5 Running in Cycle:         9100000, Inst:         7104223
3547720283000: system.switch_cpus: Raw Gem5 Running in Cycle:         9200000, Inst:         7181601
3547770283000: system.switch_cpus: Raw Gem5 Running in Cycle:         9300000, Inst:         7259887
3547820283000: system.switch_cpus: Raw Gem5 Running in Cycle:         9400000, Inst:         7337935
3547870283000: system.switch_cpus: Raw Gem5 Running in Cycle:         9500000, Inst:         7415983
3547920283000: system.switch_cpus: Raw Gem5 Running in Cycle:         9600000, Inst:         7494319
3547970283000: system.switch_cpus: Raw Gem5 Running in Cycle:         9700000, Inst:         7572223
3548020283000: system.switch_cpus: Raw Gem5 Running in Cycle:         9800000, Inst:         7650415
3548070283000: system.switch_cpus: Raw Gem5 Running in Cycle:         9900000, Inst:         7728751
3548120283000: system.switch_cpus: Raw Gem5 Running in Cycle:        10000000, Inst:         7806223
3548170283000: system.switch_cpus: Raw Gem5 Running in Cycle:        10100000, Inst:         7884415
3548220283000: system.switch_cpus: Raw Gem5 Running in Cycle:        10200000, Inst:         7962607
3548270283000: system.switch_cpus: Raw Gem5 Running in Cycle:        10300000, Inst:         8040511
3548320283000: system.switch_cpus: Raw Gem5 Running in Cycle:        10400000, Inst:         8118847
3548370283000: system.switch_cpus: Raw Gem5 Running in Cycle:        10500000, Inst:         8197183
3548420283000: system.switch_cpus: Raw Gem5 Running in Cycle:        10600000, Inst:         8274943
3548470283000: system.switch_cpus: Raw Gem5 Running in Cycle:        10700000, Inst:         8353279
3548520283000: system.switch_cpus: Raw Gem5 Running in Cycle:        10800000, Inst:         8431615
3548570283000: system.switch_cpus: Raw Gem5 Running in Cycle:        10900000, Inst:         8508993
3548620283000: system.switch_cpus: Raw Gem5 Running in Cycle:        11000000, Inst:         8587279
3548670283000: system.switch_cpus: Raw Gem5 Running in Cycle:        11100000, Inst:         8665053
3548720283000: system.switch_cpus: Raw Gem5 Running in Cycle:        11200000, Inst:         8743375
3548770283000: system.switch_cpus: Raw Gem5 Running in Cycle:        11300000, Inst:         8821711
3548820283000: system.switch_cpus: Raw Gem5 Running in Cycle:        11400000, Inst:         8899615
3548870283000: system.switch_cpus: Raw Gem5 Running in Cycle:        11500000, Inst:         8977843
3548920283000: system.switch_cpus: Raw Gem5 Running in Cycle:        11600000, Inst:         9056143
3548970283000: system.switch_cpus: Raw Gem5 Running in Cycle:        11700000, Inst:         9133615
3549020283000: system.switch_cpus: Raw Gem5 Running in Cycle:        11800000, Inst:         9211807
3549070283000: system.switch_cpus: Raw Gem5 Running in Cycle:        11900000, Inst:         9289999
3549120283000: system.switch_cpus: Raw Gem5 Running in Cycle:        12000000, Inst:         9367903
3549170283000: system.switch_cpus: Raw Gem5 Running in Cycle:        12100000, Inst:         9446239
3549220283000: system.switch_cpus: Raw Gem5 Running in Cycle:        12200000, Inst:         9524575
3549270283000: system.switch_cpus: Raw Gem5 Running in Cycle:        12300000, Inst:         9602407
3549320283000: system.switch_cpus: Raw Gem5 Running in Cycle:        12400000, Inst:         9680671
3549370283000: system.switch_cpus: Raw Gem5 Running in Cycle:        12500000, Inst:         9758719
3549420283000: system.switch_cpus: Raw Gem5 Running in Cycle:        12600000, Inst:         9836473
3549470283000: system.switch_cpus: Raw Gem5 Running in Cycle:        12700000, Inst:         9914671
3549520283000: system.switch_cpus: Raw Gem5 Running in Cycle:        12800000, Inst:         9992431
3549570283000: system.switch_cpus: Raw Gem5 Running in Cycle:        12900000, Inst:        10070767
3549620283000: system.switch_cpus: Raw Gem5 Running in Cycle:        13000000, Inst:        10148671
3549670283000: system.switch_cpus: Raw Gem5 Running in Cycle:        13100000, Inst:        10227007
3549720283000: system.switch_cpus: Raw Gem5 Running in Cycle:        13200000, Inst:        10305309
3549770283000: system.switch_cpus: Raw Gem5 Running in Cycle:        13300000, Inst:        10382671
3549820283000: system.switch_cpus: Raw Gem5 Running in Cycle:        13400000, Inst:        10460863
3549870283000: system.switch_cpus: Raw Gem5 Running in Cycle:        13500000, Inst:        10539199
3549920283000: system.switch_cpus: Raw Gem5 Running in Cycle:        13600000, Inst:        10616959
3549970283000: system.switch_cpus: Raw Gem5 Running in Cycle:        13700000, Inst:        10695295
3550020283000: system.switch_cpus: Raw Gem5 Running in Cycle:        13800000, Inst:        10773631
3550070283000: system.switch_cpus: Raw Gem5 Running in Cycle:        13900000, Inst:        10851535
3550120283000: system.switch_cpus: Raw Gem5 Running in Cycle:        14000000, Inst:        10929840
3550170283000: system.switch_cpus: Raw Gem5 Running in Cycle:        14100000, Inst:        11007487
3550220283000: system.switch_cpus: Raw Gem5 Running in Cycle:        14200000, Inst:        11085535
3550270283000: system.switch_cpus: Raw Gem5 Running in Cycle:        14300000, Inst:        11163727
3550320283000: system.switch_cpus: Raw Gem5 Running in Cycle:        14400000, Inst:        11241631
3550370283000: system.switch_cpus: Raw Gem5 Running in Cycle:        14500000, Inst:        11319859
3550420283000: system.switch_cpus: Raw Gem5 Running in Cycle:        14600000, Inst:        11398159
3550470283000: system.switch_cpus: Raw Gem5 Running in Cycle:        14700000, Inst:        11476063
3550520283000: system.switch_cpus: Raw Gem5 Running in Cycle:        14800000, Inst:        11554399
3550570283000: system.switch_cpus: Raw Gem5 Running in Cycle:        14900000, Inst:        11632735
3550620283000: system.switch_cpus: Raw Gem5 Running in Cycle:        15000000, Inst:        11710063
3550670283000: system.switch_cpus: Raw Gem5 Running in Cycle:        15100000, Inst:        11788285
3550720283000: system.switch_cpus: Raw Gem5 Running in Cycle:        15200000, Inst:        11866591
3550770283000: system.switch_cpus: Raw Gem5 Running in Cycle:        15300000, Inst:        11944417
3550820283000: system.switch_cpus: Raw Gem5 Running in Cycle:        15400000, Inst:        12022687
3550870283000: system.switch_cpus: Raw Gem5 Running in Cycle:        15500000, Inst:        12101023
3550920283000: system.switch_cpus: Raw Gem5 Running in Cycle:        15600000, Inst:        12178927
3550970283000: system.switch_cpus: Raw Gem5 Running in Cycle:        15700000, Inst:        12257263
3551020283000: system.switch_cpus: Raw Gem5 Running in Cycle:        15800000, Inst:        12334591
3551070283000: system.switch_cpus: Raw Gem5 Running in Cycle:        15900000, Inst:        12412927
3551120283000: system.switch_cpus: Raw Gem5 Running in Cycle:        16000000, Inst:        12491119
3551170283000: system.switch_cpus: Raw Gem5 Running in Cycle:        16100000, Inst:        12569023
3551220283000: system.switch_cpus: Raw Gem5 Running in Cycle:        16200000, Inst:        12647323
3551270283000: system.switch_cpus: Raw Gem5 Running in Cycle:        16300000, Inst:        12725581
3551320283000: system.switch_cpus: Raw Gem5 Running in Cycle:        16400000, Inst:        12803455
3551370283000: system.switch_cpus: Raw Gem5 Running in Cycle:        16500000, Inst:        12881791
3551420283000: system.switch_cpus: Raw Gem5 Running in Cycle:        16600000, Inst:        12960127
3551470283000: system.switch_cpus: Raw Gem5 Running in Cycle:        16700000, Inst:        13037455
3551520283000: system.switch_cpus: Raw Gem5 Running in Cycle:        16800000, Inst:        13115677
3551570283000: system.switch_cpus: Raw Gem5 Running in Cycle:        16900000, Inst:        13193983
3551620283000: system.switch_cpus: Raw Gem5 Running in Cycle:        17000000, Inst:        13271853
3551670283000: system.switch_cpus: Raw Gem5 Running in Cycle:        17100000, Inst:        13350081
3551720283000: system.switch_cpus: Raw Gem5 Running in Cycle:        17200000, Inst:        13428271
3551770283000: system.switch_cpus: Raw Gem5 Running in Cycle:        17300000, Inst:        13506319
3551820283000: system.switch_cpus: Raw Gem5 Running in Cycle:        17400000, Inst:        13584655
3551870283000: system.switch_cpus: Raw Gem5 Running in Cycle:        17500000, Inst:        13662055
3551920283000: system.switch_cpus: Raw Gem5 Running in Cycle:        17600000, Inst:        13740319
3551970283000: system.switch_cpus: Raw Gem5 Running in Cycle:        17700000, Inst:        13818511
3552020283000: system.switch_cpus: Raw Gem5 Running in Cycle:        17800000, Inst:        13896415
3552070283000: system.switch_cpus: Raw Gem5 Running in Cycle:        17900000, Inst:        13974751
3552120283000: system.switch_cpus: Raw Gem5 Running in Cycle:        18000000, Inst:        14053009
3552170283000: system.switch_cpus: Raw Gem5 Running in Cycle:        18100000, Inst:        14130933
3552220283000: system.switch_cpus: Raw Gem5 Running in Cycle:        18200000, Inst:        14209183
3552270283000: system.switch_cpus: Raw Gem5 Running in Cycle:        18300000, Inst:        14287519
3552320283000: system.switch_cpus: Raw Gem5 Running in Cycle:        18400000, Inst:        14364847
3552370283000: system.switch_cpus: Raw Gem5 Running in Cycle:        18500000, Inst:        14443147
3552420283000: system.switch_cpus: Raw Gem5 Running in Cycle:        18600000, Inst:        14521375
3552470283000: system.switch_cpus: Raw Gem5 Running in Cycle:        18700000, Inst:        14599279
3552520283000: system.switch_cpus: Raw Gem5 Running in Cycle:        18800000, Inst:        14677573
3552570283000: system.switch_cpus: Raw Gem5 Running in Cycle:        18900000, Inst:        14755519
3552620283000: system.switch_cpus: Raw Gem5 Running in Cycle:        19000000, Inst:        14833711
3552670283000: system.switch_cpus: Raw Gem5 Running in Cycle:        19100000, Inst:        14912047
3552720283000: system.switch_cpus: Raw Gem5 Running in Cycle:        19200000, Inst:        14989449
3552770283000: system.switch_cpus: Raw Gem5 Running in Cycle:        19300000, Inst:        15067711
3552820283000: system.switch_cpus: Raw Gem5 Running in Cycle:        19400000, Inst:        15145903
3552870283000: system.switch_cpus: Raw Gem5 Running in Cycle:        19500000, Inst:        15223807
3552920283000: system.switch_cpus: Raw Gem5 Running in Cycle:        19600000, Inst:        15302143
3552970283000: system.switch_cpus: Raw Gem5 Running in Cycle:        19700000, Inst:        15380479
3553020283000: system.switch_cpus: Raw Gem5 Running in Cycle:        19800000, Inst:        15458325
3553070283000: system.switch_cpus: Raw Gem5 Running in Cycle:        19900000, Inst:        15536575
3553120283000: system.switch_cpus: Raw Gem5 Running in Cycle:        20000000, Inst:        15614911
3553170283000: system.switch_cpus: Raw Gem5 Running in Cycle:        20100000, Inst:        15692239
3553220283000: system.switch_cpus: Raw Gem5 Running in Cycle:        20200000, Inst:        15770553
3553270283000: system.switch_cpus: Raw Gem5 Running in Cycle:        20300000, Inst:        15848767
3553320283000: system.switch_cpus: Raw Gem5 Running in Cycle:        20400000, Inst:        15926671
3553370283000: system.switch_cpus: Raw Gem5 Running in Cycle:        20500000, Inst:        16005007
3553420283000: system.switch_cpus: Raw Gem5 Running in Cycle:        20600000, Inst:        16082911
3553470283000: system.switch_cpus: Raw Gem5 Running in Cycle:        20700000, Inst:        16161103
3553520283000: system.switch_cpus: Raw Gem5 Running in Cycle:        20800000, Inst:        16239439
3553570283000: system.switch_cpus: Raw Gem5 Running in Cycle:        20900000, Inst:        16316911
3553620283000: system.switch_cpus: Raw Gem5 Running in Cycle:        21000000, Inst:        16395103
3553670283000: system.switch_cpus: Raw Gem5 Running in Cycle:        21100000, Inst:        16473295
3553720283000: system.switch_cpus: Raw Gem5 Running in Cycle:        21200000, Inst:        16551199
3553770283000: system.switch_cpus: Raw Gem5 Running in Cycle:        21300000, Inst:        16629535
3553820283000: system.switch_cpus: Raw Gem5 Running in Cycle:        21400000, Inst:        16707799
3553870283000: system.switch_cpus: Raw Gem5 Running in Cycle:        21500000, Inst:        16785775
3553920283000: system.switch_cpus: Raw Gem5 Running in Cycle:        21600000, Inst:        16863967
3553970283000: system.switch_cpus: Raw Gem5 Running in Cycle:        21700000, Inst:        16942303
3554020283000: system.switch_cpus: Raw Gem5 Running in Cycle:        21800000, Inst:        17019697
3554070283000: system.switch_cpus: Raw Gem5 Running in Cycle:        21900000, Inst:        17097967
3554120283000: system.switch_cpus: Raw Gem5 Running in Cycle:        22000000, Inst:        17176015
3554170283000: system.switch_cpus: Raw Gem5 Running in Cycle:        22100000, Inst:        17254063
3554220283000: system.switch_cpus: Raw Gem5 Running in Cycle:        22200000, Inst:        17332399
3554270283000: system.switch_cpus: Raw Gem5 Running in Cycle:        22300000, Inst:        17410303
3554320283000: system.switch_cpus: Raw Gem5 Running in Cycle:        22400000, Inst:        17488497
3554370283000: system.switch_cpus: Raw Gem5 Running in Cycle:        22500000, Inst:        17566831
3554420283000: system.switch_cpus: Raw Gem5 Running in Cycle:        22600000, Inst:        17644303
3554470283000: system.switch_cpus: Raw Gem5 Running in Cycle:        22700000, Inst:        17722495
3554520283000: system.switch_cpus: Raw Gem5 Running in Cycle:        22800000, Inst:        17800687
3554570283000: system.switch_cpus: Raw Gem5 Running in Cycle:        22900000, Inst:        17878591
3554620283000: system.switch_cpus: Raw Gem5 Running in Cycle:        23000000, Inst:        17956927
3554670283000: system.switch_cpus: Raw Gem5 Running in Cycle:        23100000, Inst:        18035263
3554720283000: system.switch_cpus: Raw Gem5 Running in Cycle:        23200000, Inst:        18113023
3554770283000: system.switch_cpus: Raw Gem5 Running in Cycle:        23300000, Inst:        18191359
3554820283000: system.switch_cpus: Raw Gem5 Running in Cycle:        23400000, Inst:        18269695
3554870283000: system.switch_cpus: Raw Gem5 Running in Cycle:        23500000, Inst:        18347089
3554920283000: system.switch_cpus: Raw Gem5 Running in Cycle:        23600000, Inst:        18425359
3554970283000: system.switch_cpus: Raw Gem5 Running in Cycle:        23700000, Inst:        18503149
3555020283000: system.switch_cpus: Raw Gem5 Running in Cycle:        23800000, Inst:        18581455
3555070283000: system.switch_cpus: Raw Gem5 Running in Cycle:        23900000, Inst:        18659791
3555120283000: system.switch_cpus: Raw Gem5 Running in Cycle:        24000000, Inst:        18737695
3555170283000: system.switch_cpus: Raw Gem5 Running in Cycle:        24100000, Inst:        18815925
3555220283000: system.switch_cpus: Raw Gem5 Running in Cycle:        24200000, Inst:        18894223
3555270283000: system.switch_cpus: Raw Gem5 Running in Cycle:        24300000, Inst:        18971695
3555320283000: system.switch_cpus: Raw Gem5 Running in Cycle:        24400000, Inst:        19049887
3555370283000: system.switch_cpus: Raw Gem5 Running in Cycle:        24500000, Inst:        19128079
3555420283000: system.switch_cpus: Raw Gem5 Running in Cycle:        24600000, Inst:        19205983
3555470283000: system.switch_cpus: Raw Gem5 Running in Cycle:        24700000, Inst:        19284319
3555520283000: system.switch_cpus: Raw Gem5 Running in Cycle:        24800000, Inst:        19362655
3555570508000: system.switch_cpus: Raw Gem5 Running in Cycle:        24900000, Inst:        19439096
3555620508000: system.switch_cpus: Raw Gem5 Running in Cycle:        25000000, Inst:        19517362
3555670508000: system.switch_cpus: Raw Gem5 Running in Cycle:        25100000, Inst:        19595624
3555720508000: system.switch_cpus: Raw Gem5 Running in Cycle:        25200000, Inst:        19673528
3555770508000: system.switch_cpus: Raw Gem5 Running in Cycle:        25300000, Inst:        19751864
3555820508000: system.switch_cpus: Raw Gem5 Running in Cycle:        25400000, Inst:        19830200
3555870508000: system.switch_cpus: Raw Gem5 Running in Cycle:        25500000, Inst:        19907528
3555920508000: system.switch_cpus: Raw Gem5 Running in Cycle:        25600000, Inst:        19985734
3555970508000: system.switch_cpus: Raw Gem5 Running in Cycle:        25700000, Inst:        20064056
3556020508000: system.switch_cpus: Raw Gem5 Running in Cycle:        25800000, Inst:        20141882
3556070508000: system.switch_cpus: Raw Gem5 Running in Cycle:        25900000, Inst:        20220152
3556120508000: system.switch_cpus: Raw Gem5 Running in Cycle:        26000000, Inst:        20298488
3556170508000: system.switch_cpus: Raw Gem5 Running in Cycle:        26100000, Inst:        20376392
3556220508000: system.switch_cpus: Raw Gem5 Running in Cycle:        26200000, Inst:        20454728
3556270508000: system.switch_cpus: Raw Gem5 Running in Cycle:        26300000, Inst:        20532344
3556320508000: system.switch_cpus: Raw Gem5 Running in Cycle:        26400000, Inst:        20610392
3556370508000: system.switch_cpus: Raw Gem5 Running in Cycle:        26500000, Inst:        20688584
3556420508000: system.switch_cpus: Raw Gem5 Running in Cycle:        26600000, Inst:        20766488
3556470508000: system.switch_cpus: Raw Gem5 Running in Cycle:        26700000, Inst:        20844766
3556520508000: system.switch_cpus: Raw Gem5 Running in Cycle:        26800000, Inst:        20923016
3556570508000: system.switch_cpus: Raw Gem5 Running in Cycle:        26900000, Inst:        21000970
3556620508000: system.switch_cpus: Raw Gem5 Running in Cycle:        27000000, Inst:        21079256
3556670508000: system.switch_cpus: Raw Gem5 Running in Cycle:        27100000, Inst:        21157592
3556720508000: system.switch_cpus: Raw Gem5 Running in Cycle:        27200000, Inst:        21234920
3556770508000: system.switch_cpus: Raw Gem5 Running in Cycle:        27300000, Inst:        21313189
3556820508000: system.switch_cpus: Raw Gem5 Running in Cycle:        27400000, Inst:        21391448
3556870508000: system.switch_cpus: Raw Gem5 Running in Cycle:        27500000, Inst:        21469316
3556920508000: system.switch_cpus: Raw Gem5 Running in Cycle:        27600000, Inst:        21547574
3556970508000: system.switch_cpus: Raw Gem5 Running in Cycle:        27700000, Inst:        21625880
3557020508000: system.switch_cpus: Raw Gem5 Running in Cycle:        27800000, Inst:        21703784
3557070508000: system.switch_cpus: Raw Gem5 Running in Cycle:        27900000, Inst:        21781256
3557120508000: system.switch_cpus: Raw Gem5 Running in Cycle:        28000000, Inst:        21859448
3557170508000: system.switch_cpus: Raw Gem5 Running in Cycle:        28100000, Inst:        21937717
3557220508000: system.switch_cpus: Raw Gem5 Running in Cycle:        28200000, Inst:        22015544
3557270508000: system.switch_cpus: Raw Gem5 Running in Cycle:        28300000, Inst:        22093880
3557320508000: system.switch_cpus: Raw Gem5 Running in Cycle:        28400000, Inst:        22172216
3557370508000: system.switch_cpus: Raw Gem5 Running in Cycle:        28500000, Inst:        22250120
3557420508000: system.switch_cpus: Raw Gem5 Running in Cycle:        28600000, Inst:        22328312
3557470508000: system.switch_cpus: Raw Gem5 Running in Cycle:        28700000, Inst:        22406648
3557520508000: system.switch_cpus: Raw Gem5 Running in Cycle:        28800000, Inst:        22484012
3557570508000: system.switch_cpus: Raw Gem5 Running in Cycle:        28900000, Inst:        22562312
3557620508000: system.switch_cpus: Raw Gem5 Running in Cycle:        29000000, Inst:        22640504
3557670508000: system.switch_cpus: Raw Gem5 Running in Cycle:        29100000, Inst:        22718408
3557720508000: system.switch_cpus: Raw Gem5 Running in Cycle:        29200000, Inst:        22796744
3557770508000: system.switch_cpus: Raw Gem5 Running in Cycle:        29300000, Inst:        22874792
3557820508000: system.switch_cpus: Raw Gem5 Running in Cycle:        29400000, Inst:        22952840
3557870508000: system.switch_cpus: Raw Gem5 Running in Cycle:        29500000, Inst:        23031176
3557920508000: system.switch_cpus: Raw Gem5 Running in Cycle:        29600000, Inst:        23108648
3557970508000: system.switch_cpus: Raw Gem5 Running in Cycle:        29700000, Inst:        23186840
3558020508000: system.switch_cpus: Raw Gem5 Running in Cycle:        29800000, Inst:        23265032
3558070508000: system.switch_cpus: Raw Gem5 Running in Cycle:        29900000, Inst:        23342936
3558120508000: system.switch_cpus: Raw Gem5 Running in Cycle:        30000000, Inst:        23421272
3558170508000: system.switch_cpus: Raw Gem5 Running in Cycle:        30100000, Inst:        23499608
3558220508000: system.switch_cpus: Raw Gem5 Running in Cycle:        30200000, Inst:        23577512
3558270508000: system.switch_cpus: Raw Gem5 Running in Cycle:        30300000, Inst:        23655704
3558320508000: system.switch_cpus: Raw Gem5 Running in Cycle:        30400000, Inst:        23734040
3558370508000: system.switch_cpus: Raw Gem5 Running in Cycle:        30500000, Inst:        23811478
3558420508000: system.switch_cpus: Raw Gem5 Running in Cycle:        30600000, Inst:        23889704
3558470508000: system.switch_cpus: Raw Gem5 Running in Cycle:        30700000, Inst:        23967896
3558520508000: system.switch_cpus: Raw Gem5 Running in Cycle:        30800000, Inst:        24045800
3558570508000: system.switch_cpus: Raw Gem5 Running in Cycle:        30900000, Inst:        24124136
3558620508000: system.switch_cpus: Raw Gem5 Running in Cycle:        31000000, Inst:        24202006
3558670508000: system.switch_cpus: Raw Gem5 Running in Cycle:        31100000, Inst:        24280268
3558720508000: system.switch_cpus: Raw Gem5 Running in Cycle:        31200000, Inst:        24357704
3558770508000: system.switch_cpus: Raw Gem5 Running in Cycle:        31300000, Inst:        24435896
3558820508000: system.switch_cpus: Raw Gem5 Running in Cycle:        31400000, Inst:        24514226
3558870508000: system.switch_cpus: Raw Gem5 Running in Cycle:        31500000, Inst:        24591992
3558920508000: system.switch_cpus: Raw Gem5 Running in Cycle:        31600000, Inst:        24670328
3558970508000: system.switch_cpus: Raw Gem5 Running in Cycle:        31700000, Inst:        24748664
3559020508000: system.switch_cpus: Raw Gem5 Running in Cycle:        31800000, Inst:        24826568
3559070508000: system.switch_cpus: Raw Gem5 Running in Cycle:        31900000, Inst:        24904904
3559120508000: system.switch_cpus: Raw Gem5 Running in Cycle:        32000000, Inst:        24983134
3559170508000: system.switch_cpus: Raw Gem5 Running in Cycle:        32100000, Inst:        25060568
3559220508000: system.switch_cpus: Raw Gem5 Running in Cycle:        32200000, Inst:        25138760
3559270508000: system.switch_cpus: Raw Gem5 Running in Cycle:        32300000, Inst:        25216952
3559320508000: system.switch_cpus: Raw Gem5 Running in Cycle:        32400000, Inst:        25294856
3559370508000: system.switch_cpus: Raw Gem5 Running in Cycle:        32500000, Inst:        25373192
3559420508000: system.switch_cpus: Raw Gem5 Running in Cycle:        32600000, Inst:        25451096
3559470508000: system.switch_cpus: Raw Gem5 Running in Cycle:        32700000, Inst:        25529432
3559520508000: system.switch_cpus: Raw Gem5 Running in Cycle:        32800000, Inst:        25607696
3559570508000: system.switch_cpus: Raw Gem5 Running in Cycle:        32900000, Inst:        25685096
3559620508000: system.switch_cpus: Raw Gem5 Running in Cycle:        33000000, Inst:        25763290
3559670508000: system.switch_cpus: Raw Gem5 Running in Cycle:        33100000, Inst:        25841618
3559720508000: system.switch_cpus: Raw Gem5 Running in Cycle:        33200000, Inst:        25919384
3559770508000: system.switch_cpus: Raw Gem5 Running in Cycle:        33300000, Inst:        25997720
3559820508000: system.switch_cpus: Raw Gem5 Running in Cycle:        33400000, Inst:        26076056
3559870508000: system.switch_cpus: Raw Gem5 Running in Cycle:        33500000, Inst:        26153960
3559920508000: system.switch_cpus: Raw Gem5 Running in Cycle:        33600000, Inst:        26232296
3559970508000: system.switch_cpus: Raw Gem5 Running in Cycle:        33700000, Inst:        26310598
3560020508000: system.switch_cpus: Raw Gem5 Running in Cycle:        33800000, Inst:        26387960
3560070508000: system.switch_cpus: Raw Gem5 Running in Cycle:        33900000, Inst:        26466152
3560120508000: system.switch_cpus: Raw Gem5 Running in Cycle:        34000000, Inst:        26544200
3560170508000: system.switch_cpus: Raw Gem5 Running in Cycle:        34100000, Inst:        26622278
3560220508000: system.switch_cpus: Raw Gem5 Running in Cycle:        34200000, Inst:        26700584
3560270508000: system.switch_cpus: Raw Gem5 Running in Cycle:        34300000, Inst:        26778488
3560320508000: system.switch_cpus: Raw Gem5 Running in Cycle:        34400000, Inst:        26856824
3560370508000: system.switch_cpus: Raw Gem5 Running in Cycle:        34500000, Inst:        26935160
3560420508000: system.switch_cpus: Raw Gem5 Running in Cycle:        34600000, Inst:        27012488
3560470508000: system.switch_cpus: Raw Gem5 Running in Cycle:        34700000, Inst:        27090682
3560520508000: system.switch_cpus: Raw Gem5 Running in Cycle:        34800000, Inst:        27169016
3560570508000: system.switch_cpus: Raw Gem5 Running in Cycle:        34900000, Inst:        27246778
3560620508000: system.switch_cpus: Raw Gem5 Running in Cycle:        35000000, Inst:        27325112
3560670508000: system.switch_cpus: Raw Gem5 Running in Cycle:        35100000, Inst:        27403448
3560720508000: system.switch_cpus: Raw Gem5 Running in Cycle:        35200000, Inst:        27481352
3560770508000: system.switch_cpus: Raw Gem5 Running in Cycle:        35300000, Inst:        27559652
3560820508000: system.switch_cpus: Raw Gem5 Running in Cycle:        35400000, Inst:        27637880
3560870508000: system.switch_cpus: Raw Gem5 Running in Cycle:        35500000, Inst:        27715352
3560920508000: system.switch_cpus: Raw Gem5 Running in Cycle:        35600000, Inst:        27793544
3560970508000: system.switch_cpus: Raw Gem5 Running in Cycle:        35700000, Inst:        27871448
3561020508000: system.switch_cpus: Raw Gem5 Running in Cycle:        35800000, Inst:        27949706
3561070508000: system.switch_cpus: Raw Gem5 Running in Cycle:        35900000, Inst:        28027976
3561120508000: system.switch_cpus: Raw Gem5 Running in Cycle:        36000000, Inst:        28105952
3561170508000: system.switch_cpus: Raw Gem5 Running in Cycle:        36100000, Inst:        28184216
3561220508000: system.switch_cpus: Raw Gem5 Running in Cycle:        36200000, Inst:        28262552
3561270508000: system.switch_cpus: Raw Gem5 Running in Cycle:        36300000, Inst:        28339880
3561320508000: system.switch_cpus: Raw Gem5 Running in Cycle:        36400000, Inst:        28418174
3561370508000: system.switch_cpus: Raw Gem5 Running in Cycle:        36500000, Inst:        28496408
3561420508000: system.switch_cpus: Raw Gem5 Running in Cycle:        36600000, Inst:        28574270
3561470508000: system.switch_cpus: Raw Gem5 Running in Cycle:        36700000, Inst:        28652504
3561520508000: system.switch_cpus: Raw Gem5 Running in Cycle:        36800000, Inst:        28730840
3561570508000: system.switch_cpus: Raw Gem5 Running in Cycle:        36900000, Inst:        28808744
3561620508000: system.switch_cpus: Raw Gem5 Running in Cycle:        37000000, Inst:        28886648
3561670508000: system.switch_cpus: Raw Gem5 Running in Cycle:        37100000, Inst:        28964408
3561720508000: system.switch_cpus: Raw Gem5 Running in Cycle:        37200000, Inst:        29042702
3561770508000: system.switch_cpus: Raw Gem5 Running in Cycle:        37300000, Inst:        29120504
3561820508000: system.switch_cpus: Raw Gem5 Running in Cycle:        37400000, Inst:        29198840
3561870508000: system.switch_cpus: Raw Gem5 Running in Cycle:        37500000, Inst:        29277176
3561920508000: system.switch_cpus: Raw Gem5 Running in Cycle:        37600000, Inst:        29355080
3561970508000: system.switch_cpus: Raw Gem5 Running in Cycle:        37700000, Inst:        29433272
3562020508000: system.switch_cpus: Raw Gem5 Running in Cycle:        37800000, Inst:        29511608
3562070508000: system.switch_cpus: Raw Gem5 Running in Cycle:        37900000, Inst:        29588977
3562120508000: system.switch_cpus: Raw Gem5 Running in Cycle:        38000000, Inst:        29667272
3562170508000: system.switch_cpus: Raw Gem5 Running in Cycle:        38100000, Inst:        29745464
3562220508000: system.switch_cpus: Raw Gem5 Running in Cycle:        38200000, Inst:        29823368
3562270508000: system.switch_cpus: Raw Gem5 Running in Cycle:        38300000, Inst:        29901704
3562320508000: system.switch_cpus: Raw Gem5 Running in Cycle:        38400000, Inst:        29979934
3562370508000: system.switch_cpus: Raw Gem5 Running in Cycle:        38500000, Inst:        30057800
3562420508000: system.switch_cpus: Raw Gem5 Running in Cycle:        38600000, Inst:        30136136
3562470508000: system.switch_cpus: Raw Gem5 Running in Cycle:        38700000, Inst:        30213752
3562520508000: system.switch_cpus: Raw Gem5 Running in Cycle:        38800000, Inst:        30291800
3562570508000: system.switch_cpus: Raw Gem5 Running in Cycle:        38900000, Inst:        30370094
3562620508000: system.switch_cpus: Raw Gem5 Running in Cycle:        39000000, Inst:        30447896
3562670508000: system.switch_cpus: Raw Gem5 Running in Cycle:        39100000, Inst:        30526232
3562720508000: system.switch_cpus: Raw Gem5 Running in Cycle:        39200000, Inst:        30604568
3562770508000: system.switch_cpus: Raw Gem5 Running in Cycle:        39300000, Inst:        30682472
3562820508000: system.switch_cpus: Raw Gem5 Running in Cycle:        39400000, Inst:        30760664
3562870508000: system.switch_cpus: Raw Gem5 Running in Cycle:        39500000, Inst:        30839000
3562920508000: system.switch_cpus: Raw Gem5 Running in Cycle:        39600000, Inst:        30916450
3562970508000: system.switch_cpus: Raw Gem5 Running in Cycle:        39700000, Inst:        30994664
3563020508000: system.switch_cpus: Raw Gem5 Running in Cycle:        39800000, Inst:        31072856
3563070508000: system.switch_cpus: Raw Gem5 Running in Cycle:        39900000, Inst:        31150760
3563120508000: system.switch_cpus: Raw Gem5 Running in Cycle:        40000000, Inst:        31229096
3563170508000: system.switch_cpus: Raw Gem5 Running in Cycle:        40100000, Inst:        31307398
3563220508000: system.switch_cpus: Raw Gem5 Running in Cycle:        40200000, Inst:        31385194
3563270508000: system.switch_cpus: Raw Gem5 Running in Cycle:        40300000, Inst:        31463528
3563320508000: system.switch_cpus: Raw Gem5 Running in Cycle:        40400000, Inst:        31541000
3563370508000: system.switch_cpus: Raw Gem5 Running in Cycle:        40500000, Inst:        31619192
3563420508000: system.switch_cpus: Raw Gem5 Running in Cycle:        40600000, Inst:        31697528
3563470508000: system.switch_cpus: Raw Gem5 Running in Cycle:        40700000, Inst:        31775290
3563520508000: system.switch_cpus: Raw Gem5 Running in Cycle:        40800000, Inst:        31853624
3563570508000: system.switch_cpus: Raw Gem5 Running in Cycle:        40900000, Inst:        31931960
3563620508000: system.switch_cpus: Raw Gem5 Running in Cycle:        41000000, Inst:        32009864
3563670508000: system.switch_cpus: Raw Gem5 Running in Cycle:        41100000, Inst:        32088061
3563720508000: system.switch_cpus: Raw Gem5 Running in Cycle:        41200000, Inst:        32166392
3563770508000: system.switch_cpus: Raw Gem5 Running in Cycle:        41300000, Inst:        32243842
3563820508000: system.switch_cpus: Raw Gem5 Running in Cycle:        41400000, Inst:        32322056
3563870508000: system.switch_cpus: Raw Gem5 Running in Cycle:        41500000, Inst:        32400248
3563920508000: system.switch_cpus: Raw Gem5 Running in Cycle:        41600000, Inst:        32478152
3563970508000: system.switch_cpus: Raw Gem5 Running in Cycle:        41700000, Inst:        32556488
3564020508000: system.switch_cpus: Raw Gem5 Running in Cycle:        41800000, Inst:        32634536
3564070508000: system.switch_cpus: Raw Gem5 Running in Cycle:        41900000, Inst:        32712622
3564120508000: system.switch_cpus: Raw Gem5 Running in Cycle:        42000000, Inst:        32790920
3564170508000: system.switch_cpus: Raw Gem5 Running in Cycle:        42100000, Inst:        32868392
3564220508000: system.switch_cpus: Raw Gem5 Running in Cycle:        42200000, Inst:        32946584
3564270508000: system.switch_cpus: Raw Gem5 Running in Cycle:        42300000, Inst:        33024848
3564320508000: system.switch_cpus: Raw Gem5 Running in Cycle:        42400000, Inst:        33102682
3564370508000: system.switch_cpus: Raw Gem5 Running in Cycle:        42500000, Inst:        33181016
3564420508000: system.switch_cpus: Raw Gem5 Running in Cycle:        42600000, Inst:        33259352
3564470508000: system.switch_cpus: Raw Gem5 Running in Cycle:        42700000, Inst:        33337256
3564520508000: system.switch_cpus: Raw Gem5 Running in Cycle:        42800000, Inst:        33415556
3564570508000: system.switch_cpus: Raw Gem5 Running in Cycle:        42900000, Inst:        33493786
3564620508000: system.switch_cpus: Raw Gem5 Running in Cycle:        43000000, Inst:        33571256
3564670508000: system.switch_cpus: Raw Gem5 Running in Cycle:        43100000, Inst:        33649448
3564720508000: system.switch_cpus: Raw Gem5 Running in Cycle:        43200000, Inst:        33727640
3564770508000: system.switch_cpus: Raw Gem5 Running in Cycle:        43300000, Inst:        33805544
3564820508000: system.switch_cpus: Raw Gem5 Running in Cycle:        43400000, Inst:        33883880
3564870508000: system.switch_cpus: Raw Gem5 Running in Cycle:        43500000, Inst:        33961784
3564920508000: system.switch_cpus: Raw Gem5 Running in Cycle:        43600000, Inst:        34040089
3564970508000: system.switch_cpus: Raw Gem5 Running in Cycle:        43700000, Inst:        34118348
3565020508000: system.switch_cpus: Raw Gem5 Running in Cycle:        43800000, Inst:        34195784
3565070508000: system.switch_cpus: Raw Gem5 Running in Cycle:        43900000, Inst:        34273976
3565120508000: system.switch_cpus: Raw Gem5 Running in Cycle:        44000000, Inst:        34352312
3565170508000: system.switch_cpus: Raw Gem5 Running in Cycle:        44100000, Inst:        34430072
3565220508000: system.switch_cpus: Raw Gem5 Running in Cycle:        44200000, Inst:        34508408
3565270508000: system.switch_cpus: Raw Gem5 Running in Cycle:        44300000, Inst:        34586744
3565320508000: system.switch_cpus: Raw Gem5 Running in Cycle:        44400000, Inst:        34664648
3565370508000: system.switch_cpus: Raw Gem5 Running in Cycle:        44500000, Inst:        34742984
3565420508000: system.switch_cpus: Raw Gem5 Running in Cycle:        44600000, Inst:        34821217
3565470508000: system.switch_cpus: Raw Gem5 Running in Cycle:        44700000, Inst:        34898648
3565520508000: system.switch_cpus: Raw Gem5 Running in Cycle:        44800000, Inst:        34976840
3565570508000: system.switch_cpus: Raw Gem5 Running in Cycle:        44900000, Inst:        35055032
3565620508000: system.switch_cpus: Raw Gem5 Running in Cycle:        45000000, Inst:        35132936
3565670508000: system.switch_cpus: Raw Gem5 Running in Cycle:        45100000, Inst:        35211272
3565720508000: system.switch_cpus: Raw Gem5 Running in Cycle:        45200000, Inst:        35289176
3565770508000: system.switch_cpus: Raw Gem5 Running in Cycle:        45300000, Inst:        35367512
3565820508000: system.switch_cpus: Raw Gem5 Running in Cycle:        45400000, Inst:        35445778
3565870508000: system.switch_cpus: Raw Gem5 Running in Cycle:        45500000, Inst:        35523176
3565920508000: system.switch_cpus: Raw Gem5 Running in Cycle:        45600000, Inst:        35601373
3565970508000: system.switch_cpus: Raw Gem5 Running in Cycle:        45700000, Inst:        35679704
3566020508000: system.switch_cpus: Raw Gem5 Running in Cycle:        45800000, Inst:        35757464
3566070508000: system.switch_cpus: Raw Gem5 Running in Cycle:        45900000, Inst:        35835800
3566120508000: system.switch_cpus: Raw Gem5 Running in Cycle:        46000000, Inst:        35914136
3566170508000: system.switch_cpus: Raw Gem5 Running in Cycle:        46100000, Inst:        35992040
3566220508000: system.switch_cpus: Raw Gem5 Running in Cycle:        46200000, Inst:        36070376
3566270508000: system.switch_cpus: Raw Gem5 Running in Cycle:        46300000, Inst:        36148681
3566320508000: system.switch_cpus: Raw Gem5 Running in Cycle:        46400000, Inst:        36226040
3566370508000: system.switch_cpus: Raw Gem5 Running in Cycle:        46500000, Inst:        36304232
3566420508000: system.switch_cpus: Raw Gem5 Running in Cycle:        46600000, Inst:        36382280
3566470508000: system.switch_cpus: Raw Gem5 Running in Cycle:        46700000, Inst:        36460364
3566520508000: system.switch_cpus: Raw Gem5 Running in Cycle:        46800000, Inst:        36538664
3566570508000: system.switch_cpus: Raw Gem5 Running in Cycle:        46900000, Inst:        36616568
3566620508000: system.switch_cpus: Raw Gem5 Running in Cycle:        47000000, Inst:        36694904
3566670508000: system.switch_cpus: Raw Gem5 Running in Cycle:        47100000, Inst:        36773240
3566720508000: system.switch_cpus: Raw Gem5 Running in Cycle:        47200000, Inst:        36850568
3566770508000: system.switch_cpus: Raw Gem5 Running in Cycle:        47300000, Inst:        36928765
3566820508000: system.switch_cpus: Raw Gem5 Running in Cycle:        47400000, Inst:        37007096
3566870508000: system.switch_cpus: Raw Gem5 Running in Cycle:        47500000, Inst:        37084861
3566920508000: system.switch_cpus: Raw Gem5 Running in Cycle:        47600000, Inst:        37163192
3566970508000: system.switch_cpus: Raw Gem5 Running in Cycle:        47700000, Inst:        37241528
3567020508000: system.switch_cpus: Raw Gem5 Running in Cycle:        47800000, Inst:        37319432
3567070508000: system.switch_cpus: Raw Gem5 Running in Cycle:        47900000, Inst:        37397732
3567120508000: system.switch_cpus: Raw Gem5 Running in Cycle:        48000000, Inst:        37475960
3567170508000: system.switch_cpus: Raw Gem5 Running in Cycle:        48100000, Inst:        37553432
3567220508000: system.switch_cpus: Raw Gem5 Running in Cycle:        48200000, Inst:        37631624
3567270508000: system.switch_cpus: Raw Gem5 Running in Cycle:        48300000, Inst:        37709528
3567320508000: system.switch_cpus: Raw Gem5 Running in Cycle:        48400000, Inst:        37787792
3567370508000: system.switch_cpus: Raw Gem5 Running in Cycle:        48500000, Inst:        37866056
3567420508000: system.switch_cpus: Raw Gem5 Running in Cycle:        48600000, Inst:        37944034
3567470508000: system.switch_cpus: Raw Gem5 Running in Cycle:        48700000, Inst:        38022296
3567520508000: system.switch_cpus: Raw Gem5 Running in Cycle:        48800000, Inst:        38100632
3567570508000: system.switch_cpus: Raw Gem5 Running in Cycle:        48900000, Inst:        38177960
3567620508000: system.switch_cpus: Raw Gem5 Running in Cycle:        49000000, Inst:        38256260
3567670918000: system.switch_cpus: Raw Gem5 Running in Cycle:        49100000, Inst:        38323432
3567720918000: system.switch_cpus: Raw Gem5 Running in Cycle:        49200000, Inst:        38388168
3567770918000: system.switch_cpus: Raw Gem5 Running in Cycle:        49300000, Inst:        38452960
3567820918000: system.switch_cpus: Raw Gem5 Running in Cycle:        49400000, Inst:        38517782
3567870918000: system.switch_cpus: Raw Gem5 Running in Cycle:        49500000, Inst:        38582264
3567920918000: system.switch_cpus: Raw Gem5 Running in Cycle:        49600000, Inst:        38647336
3567970918000: system.switch_cpus: Raw Gem5 Running in Cycle:        49700000, Inst:        38712156
3568020918000: system.switch_cpus: Raw Gem5 Running in Cycle:        49800000, Inst:        38776937
3568070918000: system.switch_cpus: Raw Gem5 Running in Cycle:        49900000, Inst:        38841432
3568120918000: system.switch_cpus: Raw Gem5 Running in Cycle:        50000000, Inst:        38906504
3568170918000: system.switch_cpus: Raw Gem5 Running in Cycle:        50100000, Inst:        38971306
3568220918000: system.switch_cpus: Raw Gem5 Running in Cycle:        50200000, Inst:        39036144
3568270918000: system.switch_cpus: Raw Gem5 Running in Cycle:        50300000, Inst:        39100600
3568320918000: system.switch_cpus: Raw Gem5 Running in Cycle:        50400000, Inst:        39165290
3568370918000: system.switch_cpus: Raw Gem5 Running in Cycle:        50500000, Inst:        39219208
3568420918000: system.switch_cpus: Raw Gem5 Running in Cycle:        50600000, Inst:        39265690
3568470918000: system.switch_cpus: Raw Gem5 Running in Cycle:        50700000, Inst:        39312280
3568520918000: system.switch_cpus: Raw Gem5 Running in Cycle:        50800000, Inst:        39358553
3568570918000: system.switch_cpus: Raw Gem5 Running in Cycle:        50900000, Inst:        39405298
3568620918000: system.switch_cpus: Raw Gem5 Running in Cycle:        51000000, Inst:        39451690
3568670918000: system.switch_cpus: Raw Gem5 Running in Cycle:        51100000, Inst:        39498424
3568720918000: system.switch_cpus: Raw Gem5 Running in Cycle:        51200000, Inst:        39544680
3568770918000: system.switch_cpus: Raw Gem5 Running in Cycle:        51300000, Inst:        39591160
3568820918000: system.switch_cpus: Raw Gem5 Running in Cycle:        51400000, Inst:        39637752
3568870918000: system.switch_cpus: Raw Gem5 Running in Cycle:        51500000, Inst:        39684344
3568920918000: system.switch_cpus: Raw Gem5 Running in Cycle:        51600000, Inst:        39730600
3568970918000: system.switch_cpus: Raw Gem5 Running in Cycle:        51700000, Inst:        39777528
3569020918000: system.switch_cpus: Raw Gem5 Running in Cycle:        51800000, Inst:        39823672
3569070918000: system.switch_cpus: Raw Gem5 Running in Cycle:        51900000, Inst:        39870600
3569120918000: system.switch_cpus: Raw Gem5 Running in Cycle:        52000000, Inst:        39916856
3569170918000: system.switch_cpus: Raw Gem5 Running in Cycle:        52100000, Inst:        39963418
3569220918000: system.switch_cpus: Raw Gem5 Running in Cycle:        52200000, Inst:        40009928
3569270918000: system.switch_cpus: Raw Gem5 Running in Cycle:        52300000, Inst:        40056520
3569320918000: system.switch_cpus: Raw Gem5 Running in Cycle:        52400000, Inst:        40102776
3569370918000: system.switch_cpus: Raw Gem5 Running in Cycle:        52500000, Inst:        40149368
3569420918000: system.switch_cpus: Raw Gem5 Running in Cycle:        52600000, Inst:        40195904
3569470918000: system.switch_cpus: Raw Gem5 Running in Cycle:        52700000, Inst:        40242104
3569520918000: system.switch_cpus: Raw Gem5 Running in Cycle:        52800000, Inst:        40288920
3569570918000: system.switch_cpus: Raw Gem5 Running in Cycle:        52900000, Inst:        40335288
3569620918000: system.switch_cpus: Raw Gem5 Running in Cycle:        53000000, Inst:        40381992
3569670918000: system.switch_cpus: Raw Gem5 Running in Cycle:        53100000, Inst:        40428360
3569720918000: system.switch_cpus: Raw Gem5 Running in Cycle:        53200000, Inst:        40474840
3569770918000: system.switch_cpus: Raw Gem5 Running in Cycle:        53300000, Inst:        40521404
3569820918000: system.switch_cpus: Raw Gem5 Running in Cycle:        53400000, Inst:        40567912
3569870918000: system.switch_cpus: Raw Gem5 Running in Cycle:        53500000, Inst:        40614280
3569920918000: system.switch_cpus: Raw Gem5 Running in Cycle:        53600000, Inst:        40660984
3569970918000: system.switch_cpus: Raw Gem5 Running in Cycle:        53700000, Inst:        40707352
3570020918000: system.switch_cpus: Raw Gem5 Running in Cycle:        53800000, Inst:        40754168
3570070918000: system.switch_cpus: Raw Gem5 Running in Cycle:        53900000, Inst:        40800312
3570120918000: system.switch_cpus: Raw Gem5 Running in Cycle:        54000000, Inst:        40846904
3570170918000: system.switch_cpus: Raw Gem5 Running in Cycle:        54100000, Inst:        40893608
3570220918000: system.switch_cpus: Raw Gem5 Running in Cycle:        54200000, Inst:        40940088
3570270918000: system.switch_cpus: Raw Gem5 Running in Cycle:        54300000, Inst:        40986344
3570320918000: system.switch_cpus: Raw Gem5 Running in Cycle:        54400000, Inst:        41033160
3570370918000: system.switch_cpus: Raw Gem5 Running in Cycle:        54500000, Inst:        41079584
3570420918000: system.switch_cpus: Raw Gem5 Running in Cycle:        54600000, Inst:        41126176
3570470918000: system.switch_cpus: Raw Gem5 Running in Cycle:        54700000, Inst:        41172712
3570520918000: system.switch_cpus: Raw Gem5 Running in Cycle:        54800000, Inst:        41219080
3570570918000: system.switch_cpus: Raw Gem5 Running in Cycle:        54900000, Inst:        41265814
3570620918000: system.switch_cpus: Raw Gem5 Running in Cycle:        55000000, Inst:        41312197
3570670918000: system.switch_cpus: Raw Gem5 Running in Cycle:        55100000, Inst:        41358968
3570720918000: system.switch_cpus: Raw Gem5 Running in Cycle:        55200000, Inst:        41405224
3570770918000: system.switch_cpus: Raw Gem5 Running in Cycle:        55300000, Inst:        41451704
3570820918000: system.switch_cpus: Raw Gem5 Running in Cycle:        55400000, Inst:        41498296
3570870918000: system.switch_cpus: Raw Gem5 Running in Cycle:        55500000, Inst:        41544888
3570920918000: system.switch_cpus: Raw Gem5 Running in Cycle:        55600000, Inst:        41591144
3570970918000: system.switch_cpus: Raw Gem5 Running in Cycle:        55700000, Inst:        41638072
3571020918000: system.switch_cpus: Raw Gem5 Running in Cycle:        55800000, Inst:        41684216
3571070918000: system.switch_cpus: Raw Gem5 Running in Cycle:        55900000, Inst:        41731144
3571120918000: system.switch_cpus: Raw Gem5 Running in Cycle:        56000000, Inst:        41777400
3571170918000: system.switch_cpus: Raw Gem5 Running in Cycle:        56100000, Inst:        41823925
3571220918000: system.switch_cpus: Raw Gem5 Running in Cycle:        56200000, Inst:        41870472
3571270918000: system.switch_cpus: Raw Gem5 Running in Cycle:        56300000, Inst:        41917064
3571320918000: system.switch_cpus: Raw Gem5 Running in Cycle:        56400000, Inst:        41963320
3571370918000: system.switch_cpus: Raw Gem5 Running in Cycle:        56500000, Inst:        42009912
3571420918000: system.switch_cpus: Raw Gem5 Running in Cycle:        56600000, Inst:        42056420
3571470918000: system.switch_cpus: Raw Gem5 Running in Cycle:        56700000, Inst:        42102648
3571520918000: system.switch_cpus: Raw Gem5 Running in Cycle:        56800000, Inst:        42149464
3571570918000: system.switch_cpus: Raw Gem5 Running in Cycle:        56900000, Inst:        42195832
3571620918000: system.switch_cpus: Raw Gem5 Running in Cycle:        57000000, Inst:        42242536
3571670918000: system.switch_cpus: Raw Gem5 Running in Cycle:        57100000, Inst:        42288874
3571720918000: system.switch_cpus: Raw Gem5 Running in Cycle:        57200000, Inst:        42335384
3571770918000: system.switch_cpus: Raw Gem5 Running in Cycle:        57300000, Inst:        42381920
3571820918000: system.switch_cpus: Raw Gem5 Running in Cycle:        57400000, Inst:        42428456
3571870918000: system.switch_cpus: Raw Gem5 Running in Cycle:        57500000, Inst:        42474824
3571920918000: system.switch_cpus: Raw Gem5 Running in Cycle:        57600000, Inst:        42521528
3571970918000: system.switch_cpus: Raw Gem5 Running in Cycle:        57700000, Inst:        42567896
3572020918000: system.switch_cpus: Raw Gem5 Running in Cycle:        57800000, Inst:        42614712
3572070918000: system.switch_cpus: Raw Gem5 Running in Cycle:        57900000, Inst:        42660856
3572120918000: system.switch_cpus: Raw Gem5 Running in Cycle:        58000000, Inst:        42707448
3572170918000: system.switch_cpus: Raw Gem5 Running in Cycle:        58100000, Inst:        42754040
3572220918000: system.switch_cpus: Raw Gem5 Running in Cycle:        58200000, Inst:        42800632
3572270918000: system.switch_cpus: Raw Gem5 Running in Cycle:        58300000, Inst:        42846776
3572320918000: system.switch_cpus: Raw Gem5 Running in Cycle:        58400000, Inst:        42893704
3572370918000: system.switch_cpus: Raw Gem5 Running in Cycle:        58500000, Inst:        42939960
3572420918000: system.switch_cpus: Raw Gem5 Running in Cycle:        58600000, Inst:        42986776
3572470918000: system.switch_cpus: Raw Gem5 Running in Cycle:        58700000, Inst:        43033144
3572520918000: system.switch_cpus: Raw Gem5 Running in Cycle:        58800000, Inst:        43079624
3572570918000: system.switch_cpus: Raw Gem5 Running in Cycle:        58900000, Inst:        43126328
3572620918000: system.switch_cpus: Raw Gem5 Running in Cycle:        59000000, Inst:        43172640
3572670918000: system.switch_cpus: Raw Gem5 Running in Cycle:        59100000, Inst:        43219176
3572720918000: system.switch_cpus: Raw Gem5 Running in Cycle:        59200000, Inst:        43265768
3572770918000: system.switch_cpus: Raw Gem5 Running in Cycle:        59300000, Inst:        43312248
3572820918000: system.switch_cpus: Raw Gem5 Running in Cycle:        59400000, Inst:        43358840
3572870918000: system.switch_cpus: Raw Gem5 Running in Cycle:        59500000, Inst:        43405432
3572920918000: system.switch_cpus: Raw Gem5 Running in Cycle:        59600000, Inst:        43451688
3572970918000: system.switch_cpus: Raw Gem5 Running in Cycle:        59700000, Inst:        43498616
3573020918000: system.switch_cpus: Raw Gem5 Running in Cycle:        59800000, Inst:        43544760
3573070918000: system.switch_cpus: Raw Gem5 Running in Cycle:        59900000, Inst:        43591660
3573120918000: system.switch_cpus: Raw Gem5 Running in Cycle:        60000000, Inst:        43637944
3573170918000: system.switch_cpus: Raw Gem5 Running in Cycle:        60100000, Inst:        43684426
3573220918000: system.switch_cpus: Raw Gem5 Running in Cycle:        60200000, Inst:        43731016
3573270918000: system.switch_cpus: Raw Gem5 Running in Cycle:        60300000, Inst:        43777608
3573320918000: system.switch_cpus: Raw Gem5 Running in Cycle:        60400000, Inst:        43823864
3573370918000: system.switch_cpus: Raw Gem5 Running in Cycle:        60500000, Inst:        43870568
3573420918000: system.switch_cpus: Raw Gem5 Running in Cycle:        60600000, Inst:        43916936
3573470918000: system.switch_cpus: Raw Gem5 Running in Cycle:        60700000, Inst:        43963640
3573520918000: system.switch_cpus: Raw Gem5 Running in Cycle:        60800000, Inst:        44010008
3573570918000: system.switch_cpus: Raw Gem5 Running in Cycle:        60900000, Inst:        44056488
3573620918000: system.switch_cpus: Raw Gem5 Running in Cycle:        61000000, Inst:        44103080
3573670918000: system.switch_cpus: Raw Gem5 Running in Cycle:        61100000, Inst:        44149577
3573720918000: system.switch_cpus: Raw Gem5 Running in Cycle:        61200000, Inst:        44195928
3573770918000: system.switch_cpus: Raw Gem5 Running in Cycle:        61300000, Inst:        44242744
3573820918000: system.switch_cpus: Raw Gem5 Running in Cycle:        61400000, Inst:        44289000
3573870918000: system.switch_cpus: Raw Gem5 Running in Cycle:        61500000, Inst:        44335874
3573920918000: system.switch_cpus: Raw Gem5 Running in Cycle:        61600000, Inst:        44382072
3573970918000: system.switch_cpus: Raw Gem5 Running in Cycle:        61700000, Inst:        44428664
3574020918000: system.switch_cpus: Raw Gem5 Running in Cycle:        61800000, Inst:        44475256
3574070918000: system.switch_cpus: Raw Gem5 Running in Cycle:        61900000, Inst:        44521848
3574120918000: system.switch_cpus: Raw Gem5 Running in Cycle:        62000000, Inst:        44567992
3574170918000: system.switch_cpus: Raw Gem5 Running in Cycle:        62100000, Inst:        44614808
3574220918000: system.switch_cpus: Raw Gem5 Running in Cycle:        62200000, Inst:        44661176
3574270918000: system.switch_cpus: Raw Gem5 Running in Cycle:        62300000, Inst:        44707880
3574320918000: system.switch_cpus: Raw Gem5 Running in Cycle:        62400000, Inst:        44754248
3574370918000: system.switch_cpus: Raw Gem5 Running in Cycle:        62500000, Inst:        44800728
3574420918000: system.switch_cpus: Raw Gem5 Running in Cycle:        62600000, Inst:        44847320
3574470918000: system.switch_cpus: Raw Gem5 Running in Cycle:        62700000, Inst:        44893800
3574520918000: system.switch_cpus: Raw Gem5 Running in Cycle:        62800000, Inst:        44940168
3574570918000: system.switch_cpus: Raw Gem5 Running in Cycle:        62900000, Inst:        44986872
3574620918000: system.switch_cpus: Raw Gem5 Running in Cycle:        63000000, Inst:        45033240
3574670918000: system.switch_cpus: Raw Gem5 Running in Cycle:        63100000, Inst:        45080056
3574720918000: system.switch_cpus: Raw Gem5 Running in Cycle:        63200000, Inst:        45126200
3574770918000: system.switch_cpus: Raw Gem5 Running in Cycle:        63300000, Inst:        45172792
3574820918000: system.switch_cpus: Raw Gem5 Running in Cycle:        63400000, Inst:        45219496
3574870918000: system.switch_cpus: Raw Gem5 Running in Cycle:        63500000, Inst:        45265976
3574920918000: system.switch_cpus: Raw Gem5 Running in Cycle:        63600000, Inst:        45312232
3574970918000: system.switch_cpus: Raw Gem5 Running in Cycle:        63700000, Inst:        45359048
3575020918000: system.switch_cpus: Raw Gem5 Running in Cycle:        63800000, Inst:        45405472
3575070918000: system.switch_cpus: Raw Gem5 Running in Cycle:        63900000, Inst:        45452064
3575120918000: system.switch_cpus: Raw Gem5 Running in Cycle:        64000000, Inst:        45498656
3575170918000: system.switch_cpus: Raw Gem5 Running in Cycle:        64100000, Inst:        45544998
3575220918000: system.switch_cpus: Raw Gem5 Running in Cycle:        64200000, Inst:        45591784
3575270918000: system.switch_cpus: Raw Gem5 Running in Cycle:        64300000, Inst:        45638152
3575320918000: system.switch_cpus: Raw Gem5 Running in Cycle:        64400000, Inst:        45684408
3575370918000: system.switch_cpus: Raw Gem5 Running in Cycle:        64500000, Inst:        45731112
3575420918000: system.switch_cpus: Raw Gem5 Running in Cycle:        64600000, Inst:        45777480
3575470918000: system.switch_cpus: Raw Gem5 Running in Cycle:        64700000, Inst:        45824184
3575520918000: system.switch_cpus: Raw Gem5 Running in Cycle:        64800000, Inst:        45870552
3575570918000: system.switch_cpus: Raw Gem5 Running in Cycle:        64900000, Inst:        45917032
3575620918000: system.switch_cpus: Raw Gem5 Running in Cycle:        65000000, Inst:        45963624
3575670918000: system.switch_cpus: Raw Gem5 Running in Cycle:        65100000, Inst:        46010104
3575720918000: system.switch_cpus: Raw Gem5 Running in Cycle:        65200000, Inst:        46056472
3575770918000: system.switch_cpus: Raw Gem5 Running in Cycle:        65300000, Inst:        46103288
3575820918000: system.switch_cpus: Raw Gem5 Running in Cycle:        65400000, Inst:        46149544
3575870918000: system.switch_cpus: Raw Gem5 Running in Cycle:        65500000, Inst:        46196390
3575920918000: system.switch_cpus: Raw Gem5 Running in Cycle:        65600000, Inst:        46242616
3575970918000: system.switch_cpus: Raw Gem5 Running in Cycle:        65700000, Inst:        46289208
3576020918000: system.switch_cpus: Raw Gem5 Running in Cycle:        65800000, Inst:        46335800
3576070918000: system.switch_cpus: Raw Gem5 Running in Cycle:        65900000, Inst:        46382390
3576120918000: system.switch_cpus: Raw Gem5 Running in Cycle:        66000000, Inst:        46428536
3576170918000: system.switch_cpus: Raw Gem5 Running in Cycle:        66100000, Inst:        46475352
3576220918000: system.switch_cpus: Raw Gem5 Running in Cycle:        66200000, Inst:        46521720
3576270918000: system.switch_cpus: Raw Gem5 Running in Cycle:        66300000, Inst:        46568424
3576320918000: system.switch_cpus: Raw Gem5 Running in Cycle:        66400000, Inst:        46614792
3576370918000: system.switch_cpus: Raw Gem5 Running in Cycle:        66500000, Inst:        46661272
3576420918000: system.switch_cpus: Raw Gem5 Running in Cycle:        66600000, Inst:        46707864
3576470918000: system.switch_cpus: Raw Gem5 Running in Cycle:        66700000, Inst:        46754344
3576520918000: system.switch_cpus: Raw Gem5 Running in Cycle:        66800000, Inst:        46800712
3576570918000: system.switch_cpus: Raw Gem5 Running in Cycle:        66900000, Inst:        46847416
3576620918000: system.switch_cpus: Raw Gem5 Running in Cycle:        67000000, Inst:        46893784
3576670918000: system.switch_cpus: Raw Gem5 Running in Cycle:        67100000, Inst:        46940600
3576720918000: system.switch_cpus: Raw Gem5 Running in Cycle:        67200000, Inst:        46986761
3576770918000: system.switch_cpus: Raw Gem5 Running in Cycle:        67300000, Inst:        47033336
3576820918000: system.switch_cpus: Raw Gem5 Running in Cycle:        67400000, Inst:        47079928
3576870918000: system.switch_cpus: Raw Gem5 Running in Cycle:        67500000, Inst:        47126520
3576920918000: system.switch_cpus: Raw Gem5 Running in Cycle:        67600000, Inst:        47172729
3576970918000: system.switch_cpus: Raw Gem5 Running in Cycle:        67700000, Inst:        47219592
3577020918000: system.switch_cpus: Raw Gem5 Running in Cycle:        67800000, Inst:        47265848
3577070918000: system.switch_cpus: Raw Gem5 Running in Cycle:        67900000, Inst:        47312664
3577120918000: system.switch_cpus: Raw Gem5 Running in Cycle:        68000000, Inst:        47359032
3577170918000: system.switch_cpus: Raw Gem5 Running in Cycle:        68100000, Inst:        47405512
3577220918000: system.switch_cpus: Raw Gem5 Running in Cycle:        68200000, Inst:        47452216
3577270918000: system.switch_cpus: Raw Gem5 Running in Cycle:        68300000, Inst:        47498528
3577320918000: system.switch_cpus: Raw Gem5 Running in Cycle:        68400000, Inst:        47545064
3577370918000: system.switch_cpus: Raw Gem5 Running in Cycle:        68500000, Inst:        47591656
3577420918000: system.switch_cpus: Raw Gem5 Running in Cycle:        68600000, Inst:        47638136
3577470918000: system.switch_cpus: Raw Gem5 Running in Cycle:        68700000, Inst:        47684728
3577520918000: system.switch_cpus: Raw Gem5 Running in Cycle:        68800000, Inst:        47731320
3577570918000: system.switch_cpus: Raw Gem5 Running in Cycle:        68900000, Inst:        47777576
3577620918000: system.switch_cpus: Raw Gem5 Running in Cycle:        69000000, Inst:        47824504
3577670918000: system.switch_cpus: Raw Gem5 Running in Cycle:        69100000, Inst:        47870648
3577720918000: system.switch_cpus: Raw Gem5 Running in Cycle:        69200000, Inst:        47917576
3577770918000: system.switch_cpus: Raw Gem5 Running in Cycle:        69300000, Inst:        47963832
3577820918000: system.switch_cpus: Raw Gem5 Running in Cycle:        69400000, Inst:        48010396
3577870918000: system.switch_cpus: Raw Gem5 Running in Cycle:        69500000, Inst:        48056904
3577920918000: system.switch_cpus: Raw Gem5 Running in Cycle:        69600000, Inst:        48103496
3577970918000: system.switch_cpus: Raw Gem5 Running in Cycle:        69700000, Inst:        48149752
3578020918000: system.switch_cpus: Raw Gem5 Running in Cycle:        69800000, Inst:        48196512
3578070918000: system.switch_cpus: Raw Gem5 Running in Cycle:        69900000, Inst:        48242882
3578120918000: system.switch_cpus: Raw Gem5 Running in Cycle:        70000000, Inst:        48289556
3578170918000: system.switch_cpus: Raw Gem5 Running in Cycle:        70100000, Inst:        48335896
3578220918000: system.switch_cpus: Raw Gem5 Running in Cycle:        70200000, Inst:        48382376
3578270918000: system.switch_cpus: Raw Gem5 Running in Cycle:        70300000, Inst:        48428968
3578320918000: system.switch_cpus: Raw Gem5 Running in Cycle:        70400000, Inst:        48475542
3578370918000: system.switch_cpus: Raw Gem5 Running in Cycle:        70500000, Inst:        48521816
3578420918000: system.switch_cpus: Raw Gem5 Running in Cycle:        70600000, Inst:        48568632
3578470918000: system.switch_cpus: Raw Gem5 Running in Cycle:        70700000, Inst:        48614888
3578520918000: system.switch_cpus: Raw Gem5 Running in Cycle:        70800000, Inst:        48661816
3578570918000: system.switch_cpus: Raw Gem5 Running in Cycle:        70900000, Inst:        48707960
3578620918000: system.switch_cpus: Raw Gem5 Running in Cycle:        71000000, Inst:        48754552
3578670918000: system.switch_cpus: Raw Gem5 Running in Cycle:        71100000, Inst:        48801144
3578720918000: system.switch_cpus: Raw Gem5 Running in Cycle:        71200000, Inst:        48847736
3578770918000: system.switch_cpus: Raw Gem5 Running in Cycle:        71300000, Inst:        48893880
3578820918000: system.switch_cpus: Raw Gem5 Running in Cycle:        71400000, Inst:        48940733
3578870918000: system.switch_cpus: Raw Gem5 Running in Cycle:        71500000, Inst:        48987064
3578920918000: system.switch_cpus: Raw Gem5 Running in Cycle:        71600000, Inst:        49033770
3578970918000: system.switch_cpus: Raw Gem5 Running in Cycle:        71700000, Inst:        49080136
3579020918000: system.switch_cpus: Raw Gem5 Running in Cycle:        71800000, Inst:        49126616
3579070918000: system.switch_cpus: Raw Gem5 Running in Cycle:        71900000, Inst:        49173208
3579120918000: system.switch_cpus: Raw Gem5 Running in Cycle:        72000000, Inst:        49219770
3579170918000: system.switch_cpus: Raw Gem5 Running in Cycle:        72100000, Inst:        49266056
3579220918000: system.switch_cpus: Raw Gem5 Running in Cycle:        72200000, Inst:        49312760
3579270918000: system.switch_cpus: Raw Gem5 Running in Cycle:        72300000, Inst:        49359130
3579320918000: system.switch_cpus: Raw Gem5 Running in Cycle:        72400000, Inst:        49405944
3579370918000: system.switch_cpus: Raw Gem5 Running in Cycle:        72500000, Inst:        49452146
3579420918000: system.switch_cpus: Raw Gem5 Running in Cycle:        72600000, Inst:        49498680
3579470918000: system.switch_cpus: Raw Gem5 Running in Cycle:        72700000, Inst:        49545384
3579520918000: system.switch_cpus: Raw Gem5 Running in Cycle:        72800000, Inst:        49591864
3579570918000: system.switch_cpus: Raw Gem5 Running in Cycle:        72900000, Inst:        49638120
3579620918000: system.switch_cpus: Raw Gem5 Running in Cycle:        73000000, Inst:        49684936
3579670918000: system.switch_cpus: Raw Gem5 Running in Cycle:        73100000, Inst:        49731453
3579720918000: system.switch_cpus: Raw Gem5 Running in Cycle:        73200000, Inst:        49777952
3579770918000: system.switch_cpus: Raw Gem5 Running in Cycle:        73300000, Inst:        49824544
3579820918000: system.switch_cpus: Raw Gem5 Running in Cycle:        73400000, Inst:        49870968
3579870918000: system.switch_cpus: Raw Gem5 Running in Cycle:        73500000, Inst:        49917672
3579920918000: system.switch_cpus: Raw Gem5 Running in Cycle:        73600000, Inst:        49964040
3579970918000: system.switch_cpus: Raw Gem5 Running in Cycle:        73700000, Inst:        50010744
3580020918000: system.switch_cpus: Raw Gem5 Running in Cycle:        73800000, Inst:        50057028
3580070918000: system.switch_cpus: Raw Gem5 Running in Cycle:        73900000, Inst:        50103564
3580120918000: system.switch_cpus: Raw Gem5 Running in Cycle:        74000000, Inst:        50150072
3580170918000: system.switch_cpus: Raw Gem5 Running in Cycle:        74100000, Inst:        50196664
3580220918000: system.switch_cpus: Raw Gem5 Running in Cycle:        74200000, Inst:        50242920
3580270918000: system.switch_cpus: Raw Gem5 Running in Cycle:        74300000, Inst:        50289848
3580320918000: system.switch_cpus: Raw Gem5 Running in Cycle:        74400000, Inst:        50336048
3580370918000: system.switch_cpus: Raw Gem5 Running in Cycle:        74500000, Inst:        50382920
3580420918000: system.switch_cpus: Raw Gem5 Running in Cycle:        74600000, Inst:        50429176
3580470918000: system.switch_cpus: Raw Gem5 Running in Cycle:        74700000, Inst:        50475768
3580520918000: system.switch_cpus: Raw Gem5 Running in Cycle:        74800000, Inst:        50522360
3580570918000: system.switch_cpus: Raw Gem5 Running in Cycle:        74900000, Inst:        50568840
3580620918000: system.switch_cpus: Raw Gem5 Running in Cycle:        75000000, Inst:        50615096
3580670918000: system.switch_cpus: Raw Gem5 Running in Cycle:        75100000, Inst:        50661912
3580720918000: system.switch_cpus: Raw Gem5 Running in Cycle:        75200000, Inst:        50708280
3580770918000: system.switch_cpus: Raw Gem5 Running in Cycle:        75300000, Inst:        50754984
3580820918000: system.switch_cpus: Raw Gem5 Running in Cycle:        75400000, Inst:        50801240
3580870918000: system.switch_cpus: Raw Gem5 Running in Cycle:        75500000, Inst:        50847776
3580920918000: system.switch_cpus: Raw Gem5 Running in Cycle:        75600000, Inst:        50894312
3580970918000: system.switch_cpus: Raw Gem5 Running in Cycle:        75700000, Inst:        50940904
3581020918000: system.switch_cpus: Raw Gem5 Running in Cycle:        75800000, Inst:        50987226
[...]
3609071316000: system.switch_cpus: Raw Gem5 Running in Cycle:       131900000, Inst:        85574380
3609121316000: system.switch_cpus: Raw Gem5 Running in Cycle:       132000000, Inst:        85651852
3609171316000: system.switch_cpus: Raw Gem5 Running in Cycle:       132100000, Inst:        85730044
3609221316000: system.switch_cpus: Raw Gem5 Running in Cycle:       132200000, Inst:        85808236
3609271316000: system.switch_cpus: Raw Gem5 Running in Cycle:       132300000, Inst:        85886140
3609321316000: system.switch_cpus: Raw Gem5 Running in Cycle:       132400000, Inst:        85964476
3609371316000: system.switch_cpus: Raw Gem5 Running in Cycle:       132500000, Inst:        86042668
3609421316000: system.switch_cpus: Raw Gem5 Running in Cycle:       132600000, Inst:        86120644
3609471316000: system.switch_cpus: Raw Gem5 Running in Cycle:       132700000, Inst:        86198908
3609521316000: system.switch_cpus: Raw Gem5 Running in Cycle:       132800000, Inst:        86276380
3609571316000: system.switch_cpus: Raw Gem5 Running in Cycle:       132900000, Inst:        86354572
3609621316000: system.switch_cpus: Raw Gem5 Running in Cycle:       133000000, Inst:        86432830
3609671316000: system.switch_cpus: Raw Gem5 Running in Cycle:       133100000, Inst:        86510698
3609721316000: system.switch_cpus: Raw Gem5 Running in Cycle:       133200000, Inst:        86589004
3609771316000: system.switch_cpus: Raw Gem5 Running in Cycle:       133300000, Inst:        86667340
3609821316000: system.switch_cpus: Raw Gem5 Running in Cycle:       133400000, Inst:        86745244
3609871316000: system.switch_cpus: Raw Gem5 Running in Cycle:       133500000, Inst:        86823544
3609921316000: system.switch_cpus: Raw Gem5 Running in Cycle:       133600000, Inst:        86901802
3609971316000: system.switch_cpus: Raw Gem5 Running in Cycle:       133700000, Inst:        86979244
3610021316000: system.switch_cpus: Raw Gem5 Running in Cycle:       133800000, Inst:        87057436
3610071316000: system.switch_cpus: Raw Gem5 Running in Cycle:       133900000, Inst:        87135628
3610121316000: system.switch_cpus: Raw Gem5 Running in Cycle:       134000000, Inst:        87213532
3610171316000: system.switch_cpus: Raw Gem5 Running in Cycle:       134100000, Inst:        87291868
3610221316000: system.switch_cpus: Raw Gem5 Running in Cycle:       134200000, Inst:        87369772
3610271316000: system.switch_cpus: Raw Gem5 Running in Cycle:       134300000, Inst:        87448108
3610321316000: system.switch_cpus: Raw Gem5 Running in Cycle:       134400000, Inst:        87526350
3610371316000: system.switch_cpus: Raw Gem5 Running in Cycle:       134500000, Inst:        87603772
3610421316000: system.switch_cpus: Raw Gem5 Running in Cycle:       134600000, Inst:        87682000
3610471316000: system.switch_cpus: Raw Gem5 Running in Cycle:       134700000, Inst:        87760300
3610521316000: system.switch_cpus: Raw Gem5 Running in Cycle:       134800000, Inst:        87838168
3610571316000: system.switch_cpus: Raw Gem5 Running in Cycle:       134900000, Inst:        87916396
3610621316000: system.switch_cpus: Raw Gem5 Running in Cycle:       135000000, Inst:        87994732
3610671316000: system.switch_cpus: Raw Gem5 Running in Cycle:       135100000, Inst:        88072636
3610721316000: system.switch_cpus: Raw Gem5 Running in Cycle:       135200000, Inst:        88150972
3610771316000: system.switch_cpus: Raw Gem5 Running in Cycle:       135300000, Inst:        88229272
3610821316000: system.switch_cpus: Raw Gem5 Running in Cycle:       135400000, Inst:        88306636
3610871316000: system.switch_cpus: Raw Gem5 Running in Cycle:       135500000, Inst:        88384828
3610921316000: system.switch_cpus: Raw Gem5 Running in Cycle:       135600000, Inst:        88463094
3610971316000: system.switch_cpus: Raw Gem5 Running in Cycle:       135700000, Inst:        88540924
3611021316000: system.switch_cpus: Raw Gem5 Running in Cycle:       135800000, Inst:        88619260
3611071316000: system.switch_cpus: Raw Gem5 Running in Cycle:       135900000, Inst:        88697166
3611121316000: system.switch_cpus: Raw Gem5 Running in Cycle:       136000000, Inst:        88775500
3611171316000: system.switch_cpus: Raw Gem5 Running in Cycle:       136100000, Inst:        88853800
3611221316000: system.switch_cpus: Raw Gem5 Running in Cycle:       136200000, Inst:        88931164
3611271316000: system.switch_cpus: Raw Gem5 Running in Cycle:       136300000, Inst:        89009392
3611321316000: system.switch_cpus: Raw Gem5 Running in Cycle:       136400000, Inst:        89087692
3611371316000: system.switch_cpus: Raw Gem5 Running in Cycle:       136500000, Inst:        89165452
3611421316000: system.switch_cpus: Raw Gem5 Running in Cycle:       136600000, Inst:        89243788
3611471316000: system.switch_cpus: Raw Gem5 Running in Cycle:       136700000, Inst:        89322124
3611521316000: system.switch_cpus: Raw Gem5 Running in Cycle:       136800000, Inst:        89400028
3611571316000: system.switch_cpus: Raw Gem5 Running in Cycle:       136900000, Inst:        89478364
3611621316000: system.switch_cpus: Raw Gem5 Running in Cycle:       137000000, Inst:        89556700
3611671316000: system.switch_cpus: Raw Gem5 Running in Cycle:       137100000, Inst:        89634028
3611721316000: system.switch_cpus: Raw Gem5 Running in Cycle:       137200000, Inst:        89707042
3611771316000: system.switch_cpus: Raw Gem5 Running in Cycle:       137300000, Inst:        89779052
3611821316000: system.switch_cpus: Raw Gem5 Running in Cycle:       137400000, Inst:        89851780
3611871316000: system.switch_cpus: Raw Gem5 Running in Cycle:       137500000, Inst:        89924258
3611921316000: system.switch_cpus: Raw Gem5 Running in Cycle:       137600000, Inst:        89996706
3611971316000: system.switch_cpus: Raw Gem5 Running in Cycle:       137700000, Inst:        90069484
3612021316000: system.switch_cpus: Raw Gem5 Running in Cycle:       137800000, Inst:        90141388
3612071316000: system.switch_cpus: Raw Gem5 Running in Cycle:       137900000, Inst:        90214178
3612121316000: system.switch_cpus: Raw Gem5 Running in Cycle:       138000000, Inst:        90286626
3612171316000: system.switch_cpus: Raw Gem5 Running in Cycle:       138100000, Inst:        90359074
3612221316000: system.switch_cpus: Raw Gem5 Running in Cycle:       138200000, Inst:        90431906
3612271316000: system.switch_cpus: Raw Gem5 Running in Cycle:       138300000, Inst:        90503842
3612321316000: system.switch_cpus: Raw Gem5 Running in Cycle:       138400000, Inst:        90576162
3612371316000: system.switch_cpus: Raw Gem5 Running in Cycle:       138500000, Inst:        90649090
3612421316000: system.switch_cpus: Raw Gem5 Running in Cycle:       138600000, Inst:        90721442
3612471316000: system.switch_cpus: Raw Gem5 Running in Cycle:       138700000, Inst:        90793506
3612521316000: system.switch_cpus: Raw Gem5 Running in Cycle:       138800000, Inst:        90866210
3612571316000: system.switch_cpus: Raw Gem5 Running in Cycle:       138900000, Inst:        90938658
3612621316000: system.switch_cpus: Raw Gem5 Running in Cycle:       139000000, Inst:        91011490
3612671316000: system.switch_cpus: Raw Gem5 Running in Cycle:       139100000, Inst:        91083916
3612721316000: system.switch_cpus: Raw Gem5 Running in Cycle:       139200000, Inst:        91155874
3612771316000: system.switch_cpus: Raw Gem5 Running in Cycle:       139300000, Inst:        91228578
3612821316000: system.switch_cpus: Raw Gem5 Running in Cycle:       139400000, Inst:        91301026
3612871316000: system.switch_cpus: Raw Gem5 Running in Cycle:       139500000, Inst:        91373474
3612921316000: system.switch_cpus: Raw Gem5 Running in Cycle:       139600000, Inst:        91446306
3612971316000: system.switch_cpus: Raw Gem5 Running in Cycle:       139700000, Inst:        91518242
3613021316000: system.switch_cpus: Raw Gem5 Running in Cycle:       139800000, Inst:        91590690
3613071316000: system.switch_cpus: Raw Gem5 Running in Cycle:       139900000, Inst:        91663522
3613121316000: system.switch_cpus: Raw Gem5 Running in Cycle:       140000000, Inst:        91735842
3613171316000: system.switch_cpus: Raw Gem5 Running in Cycle:       140100000, Inst:        91807906
3613221316000: system.switch_cpus: Raw Gem5 Running in Cycle:       140200000, Inst:        91880610
3613271316000: system.switch_cpus: Raw Gem5 Running in Cycle:       140300000, Inst:        91953058
3613321316000: system.switch_cpus: Raw Gem5 Running in Cycle:       140400000, Inst:        92025506
3613371316000: system.switch_cpus: Raw Gem5 Running in Cycle:       140500000, Inst:        92098338
3613421316000: system.switch_cpus: Raw Gem5 Running in Cycle:       140600000, Inst:        92170274
3613471316000: system.switch_cpus: Raw Gem5 Running in Cycle:       140700000, Inst:        92242594
3613521316000: system.switch_cpus: Raw Gem5 Running in Cycle:       140800000, Inst:        92315426
3613571316000: system.switch_cpus: Raw Gem5 Running in Cycle:       140900000, Inst:        92387874
3613621316000: system.switch_cpus: Raw Gem5 Running in Cycle:       141000000, Inst:        92459938
3613671316000: system.switch_cpus: Raw Gem5 Running in Cycle:       141100000, Inst:        92532642
3613721316000: system.switch_cpus: Raw Gem5 Running in Cycle:       141200000, Inst:        92605068
3613771316000: system.switch_cpus: Raw Gem5 Running in Cycle:       141300000, Inst:        92677900
3613821316000: system.switch_cpus: Raw Gem5 Running in Cycle:       141400000, Inst:        92750370
3613871316000: system.switch_cpus: Raw Gem5 Running in Cycle:       141500000, Inst:        92822306
3613921316000: system.switch_cpus: Raw Gem5 Running in Cycle:       141600000, Inst:        92895010
3613971316000: system.switch_cpus: Raw Gem5 Running in Cycle:       141700000, Inst:        92967458
3614021316000: system.switch_cpus: Raw Gem5 Running in Cycle:       141800000, Inst:        93039906
3614071316000: system.switch_cpus: Raw Gem5 Running in Cycle:       141900000, Inst:        93112738
3614121316000: system.switch_cpus: Raw Gem5 Running in Cycle:       142000000, Inst:        93184674
3614171316000: system.switch_cpus: Raw Gem5 Running in Cycle:       142100000, Inst:        93257378
3614221316000: system.switch_cpus: Raw Gem5 Running in Cycle:       142200000, Inst:        93329828
3614271316000: system.switch_cpus: Raw Gem5 Running in Cycle:       142300000, Inst:        93402274
3614321316000: system.switch_cpus: Raw Gem5 Running in Cycle:       142400000, Inst:        93475138
3614371316000: system.switch_cpus: Raw Gem5 Running in Cycle:       142500000, Inst:        93547042
3614421316000: system.switch_cpus: Raw Gem5 Running in Cycle:       142600000, Inst:        93619458
3614471316000: system.switch_cpus: Raw Gem5 Running in Cycle:       142700000, Inst:        93692322
3614521316000: system.switch_cpus: Raw Gem5 Running in Cycle:       142800000, Inst:        93764770
3614571316000: system.switch_cpus: Raw Gem5 Running in Cycle:       142900000, Inst:        93836706
3614621316000: system.switch_cpus: Raw Gem5 Running in Cycle:       143000000, Inst:        93909026
3614671316000: system.switch_cpus: Raw Gem5 Running in Cycle:       143100000, Inst:        93981858
3614721316000: system.switch_cpus: Raw Gem5 Running in Cycle:       143200000, Inst:        94054306
3614771316000: system.switch_cpus: Raw Gem5 Running in Cycle:       143300000, Inst:        94126754
3614821316000: system.switch_cpus: Raw Gem5 Running in Cycle:       143400000, Inst:        94199074
3614871316000: system.switch_cpus: Raw Gem5 Running in Cycle:       143500000, Inst:        94271394
3614921316000: system.switch_cpus: Raw Gem5 Running in Cycle:       143600000, Inst:        94344258
3614971316000: system.switch_cpus: Raw Gem5 Running in Cycle:       143700000, Inst:        94416684
3615021316000: system.switch_cpus: Raw Gem5 Running in Cycle:       143800000, Inst:        94488738
3615071316000: system.switch_cpus: Raw Gem5 Running in Cycle:       143900000, Inst:        94561442
3615121316000: system.switch_cpus: Raw Gem5 Running in Cycle:       144000000, Inst:        94633890
3615171316000: system.switch_cpus: Raw Gem5 Running in Cycle:       144100000, Inst:        94706722
3615221316000: system.switch_cpus: Raw Gem5 Running in Cycle:       144200000, Inst:        94779170
3615271316000: system.switch_cpus: Raw Gem5 Running in Cycle:       144300000, Inst:        94851106
3615321316000: system.switch_cpus: Raw Gem5 Running in Cycle:       144400000, Inst:        94923810
3615371316000: system.switch_cpus: Raw Gem5 Running in Cycle:       144500000, Inst:        94996258
3615421316000: system.switch_cpus: Raw Gem5 Running in Cycle:       144600000, Inst:        95068706
3615471316000: system.switch_cpus: Raw Gem5 Running in Cycle:       144700000, Inst:        95141538
3615521316000: system.switch_cpus: Raw Gem5 Running in Cycle:       144800000, Inst:        95213474
3615571316000: system.switch_cpus: Raw Gem5 Running in Cycle:       144900000, Inst:        95285922
3615621316000: system.switch_cpus: Raw Gem5 Running in Cycle:       145000000, Inst:        95358754
3615671316000: system.switch_cpus: Raw Gem5 Running in Cycle:       145100000, Inst:        95431108
3615721316000: system.switch_cpus: Raw Gem5 Running in Cycle:       145200000, Inst:        95503138
3615771316000: system.switch_cpus: Raw Gem5 Running in Cycle:       145300000, Inst:        95575842
3615821316000: system.switch_cpus: Raw Gem5 Running in Cycle:       145400000, Inst:        95648290
3615871316000: system.switch_cpus: Raw Gem5 Running in Cycle:       145500000, Inst:        95721122
3615921316000: system.switch_cpus: Raw Gem5 Running in Cycle:       145600000, Inst:        95793570
3615971316000: system.switch_cpus: Raw Gem5 Running in Cycle:       145700000, Inst:        95865506
3616021316000: system.switch_cpus: Raw Gem5 Running in Cycle:       145800000, Inst:        95938210
3616071316000: system.switch_cpus: Raw Gem5 Running in Cycle:       145900000, Inst:        96010710
3616121316000: system.switch_cpus: Raw Gem5 Running in Cycle:       146000000, Inst:        96083170
3616171316000: system.switch_cpus: Raw Gem5 Running in Cycle:       146100000, Inst:        96155938
3616221316000: system.switch_cpus: Raw Gem5 Running in Cycle:       146200000, Inst:        96228002
3616271316000: system.switch_cpus: Raw Gem5 Running in Cycle:       146300000, Inst:        96300706
3616321316000: system.switch_cpus: Raw Gem5 Running in Cycle:       146400000, Inst:        96373154
3616371316000: system.switch_cpus: Raw Gem5 Running in Cycle:       146500000, Inst:        96445540
3616421316000: system.switch_cpus: Raw Gem5 Running in Cycle:       146600000, Inst:        96518434
3616471316000: system.switch_cpus: Raw Gem5 Running in Cycle:       146700000, Inst:        96590370
3616521316000: system.switch_cpus: Raw Gem5 Running in Cycle:       146800000, Inst:        96662690
3616571316000: system.switch_cpus: Raw Gem5 Running in Cycle:       146900000, Inst:        96735522
3616621316000: system.switch_cpus: Raw Gem5 Running in Cycle:       147000000, Inst:        96807970
3616671316000: system.switch_cpus: Raw Gem5 Running in Cycle:       147100000, Inst:        96879980
3616721316000: system.switch_cpus: Raw Gem5 Running in Cycle:       147200000, Inst:        96952738
3616771316000: system.switch_cpus: Raw Gem5 Running in Cycle:       147300000, Inst:        97025142
3616821316000: system.switch_cpus: Raw Gem5 Running in Cycle:       147400000, Inst:        97097974
3616871316000: system.switch_cpus: Raw Gem5 Running in Cycle:       147500000, Inst:        97170338
3616921316000: system.switch_cpus: Raw Gem5 Running in Cycle:       147600000, Inst:        97242402
3616971316000: system.switch_cpus: Raw Gem5 Running in Cycle:       147700000, Inst:        97315106
3617021316000: system.switch_cpus: Raw Gem5 Running in Cycle:       147800000, Inst:        97387554
3617071316000: system.switch_cpus: Raw Gem5 Running in Cycle:       147900000, Inst:        97460002
3617121316000: system.switch_cpus: Raw Gem5 Running in Cycle:       148000000, Inst:        97532834
3617171316000: system.switch_cpus: Raw Gem5 Running in Cycle:       148100000, Inst:        97604770
3617221316000: system.switch_cpus: Raw Gem5 Running in Cycle:       148200000, Inst:        97677100
3617271316000: system.switch_cpus: Raw Gem5 Running in Cycle:       148300000, Inst:        97749922
3617321316000: system.switch_cpus: Raw Gem5 Running in Cycle:       148400000, Inst:        97822370
3617371316000: system.switch_cpus: Raw Gem5 Running in Cycle:       148500000, Inst:        97895074
3617421316000: system.switch_cpus: Raw Gem5 Running in Cycle:       148600000, Inst:        97967138
3617471316000: system.switch_cpus: Raw Gem5 Running in Cycle:       148700000, Inst:        98039524
3617521316000: system.switch_cpus: Raw Gem5 Running in Cycle:       148800000, Inst:        98112034
3617571316000: system.switch_cpus: Raw Gem5 Running in Cycle:       148900000, Inst:        98184866
3617621316000: system.switch_cpus: Raw Gem5 Running in Cycle:       149000000, Inst:        98256708
3617671316000: system.switch_cpus: Raw Gem5 Running in Cycle:       149100000, Inst:        98329122
3617721316000: system.switch_cpus: Raw Gem5 Running in Cycle:       149200000, Inst:        98401954
3617771316000: system.switch_cpus: Raw Gem5 Running in Cycle:       149300000, Inst:        98474402
3617821316000: system.switch_cpus: Raw Gem5 Running in Cycle:       149400000, Inst:        98546338
3617871316000: system.switch_cpus: Raw Gem5 Running in Cycle:       149500000, Inst:        98619170
3617921316000: system.switch_cpus: Raw Gem5 Running in Cycle:       149600000, Inst:        98691490
3617971316000: system.switch_cpus: Raw Gem5 Running in Cycle:       149700000, Inst:        98764330
3618021316000: system.switch_cpus: Raw Gem5 Running in Cycle:       149800000, Inst:        98836770
3618071316000: system.switch_cpus: Raw Gem5 Running in Cycle:       149900000, Inst:        98908834
3618121316000: system.switch_cpus: Raw Gem5 Running in Cycle:       150000000, Inst:        98981538
3618171316000: system.switch_cpus: Raw Gem5 Running in Cycle:       150100000, Inst:        99053986
3618221316000: system.switch_cpus: Raw Gem5 Running in Cycle:       150200000, Inst:        99126434
3618271316000: system.switch_cpus: Raw Gem5 Running in Cycle:       150300000, Inst:        99199266
3618321316000: system.switch_cpus: Raw Gem5 Running in Cycle:       150400000, Inst:        99271202
3618371316000: system.switch_cpus: Raw Gem5 Running in Cycle:       150500000, Inst:        99343906
3618421316000: system.switch_cpus: Raw Gem5 Running in Cycle:       150600000, Inst:        99416354
3618471316000: system.switch_cpus: Raw Gem5 Running in Cycle:       150700000, Inst:        99488802
3618521316000: system.switch_cpus: Raw Gem5 Running in Cycle:       150800000, Inst:        99561634
3618571316000: system.switch_cpus: Raw Gem5 Running in Cycle:       150900000, Inst:        99633570
3618621316000: system.switch_cpus: Raw Gem5 Running in Cycle:       151000000, Inst:        99705890
3618671316000: system.switch_cpus: Raw Gem5 Running in Cycle:       151100000, Inst:        99778850
3618721316000: system.switch_cpus: Raw Gem5 Running in Cycle:       151200000, Inst:        99851182
3618771316000: system.switch_cpus: Raw Gem5 Running in Cycle:       151300000, Inst:        99923234
3618821316000: system.switch_cpus: Raw Gem5 Running in Cycle:       151400000, Inst:        99995938
Exiting @ tick 3618824203500 because a thread reached the max instruction count
end time:(year-mon-day hour-minute-second)19-03-30 22-07-56
