
---------- Begin Simulation Statistics ----------
final_tick                               3618824203500                       # Number of ticks from beginning of simulation (restored from checkpoints and never reset)
host_inst_rate                                 192015                       # Simulator instruction rate (inst/s)
host_mem_usage                                8526564                       # Number of bytes of host memory used
host_op_rate                                   192015                       # Simulator op (including micro ops) rate (op/s)
host_seconds                                   520.79                       # Real time elapsed on the host
host_tick_rate                              145364463                       # Simulator tick rate (ticks/s)
sim_freq                                 1000000000000                       # Frequency of simulated ticks
sim_insts                                   100000022                       # Number of instructions simulated
sim_ops                                     100000022                       # Number of ops (including micro ops) simulated
sim_seconds                                  0.075705                       # Number of seconds simulated
sim_ticks                                 75704653000                       # Number of ticks simulated
system.clk_domain.clock                          1000                       # Clock period in ticks
system.cpu.Branches                                 4                       # Number of branches fetched
system.cpu.committedInsts                          20                       # Number of instructions committed
system.cpu.committedOps                            20                       # Number of ops (including micro ops) committed
system.cpu.dcache.ReadReq_accesses::.cpu.data            2                       # number of ReadReq accesses(hits+misses)
system.cpu.dcache.ReadReq_accesses::.switch_cpus.data     11906988                       # number of ReadReq accesses(hits+misses)
system.cpu.dcache.ReadReq_accesses::total     11906990                       # number of ReadReq accesses(hits+misses)
system.cpu.dcache.ReadReq_avg_miss_latency::.switch_cpus.data 72260.239912                       # average ReadReq miss latency
system.cpu.dcache.ReadReq_avg_miss_latency::total 72260.233810                       # average ReadReq miss latency
system.cpu.dcache.ReadReq_avg_mshr_miss_latency::.switch_cpus.data 93585.225126                       # average ReadReq mshr miss latency
system.cpu.dcache.ReadReq_avg_mshr_miss_latency::total 93585.225126                       # average ReadReq mshr miss latency
system.cpu.dcache.ReadReq_hits::.cpu.data            1                       # number of ReadReq hits
system.cpu.dcache.ReadReq_hits::.switch_cpus.data        64748                       # number of ReadReq hits
system.cpu.dcache.ReadReq_hits::total           64749                       # number of ReadReq hits
system.cpu.dcache.ReadReq_miss_latency::.switch_cpus.data 855723103500                       # number of ReadReq miss cycles
system.cpu.dcache.ReadReq_miss_latency::total 855723103500                       # number of ReadReq miss cycles
system.cpu.dcache.ReadReq_miss_rate::.cpu.data     0.500000                       # miss rate for ReadReq accesses
system.cpu.dcache.ReadReq_miss_rate::.switch_cpus.data     0.994562                       # miss rate for ReadReq accesses
system.cpu.dcache.ReadReq_miss_rate::total     0.994562                       # miss rate for ReadReq accesses
system.cpu.dcache.ReadReq_misses::.cpu.data            1                       # number of ReadReq misses
system.cpu.dcache.ReadReq_misses::.switch_cpus.data     11842240                       # number of ReadReq misses
system.cpu.dcache.ReadReq_misses::total      11842241                       # number of ReadReq misses
system.cpu.dcache.ReadReq_mshr_hits::.switch_cpus.data      8882878                       # number of ReadReq MSHR hits
system.cpu.dcache.ReadReq_mshr_hits::total      8882878                       # number of ReadReq MSHR hits
system.cpu.dcache.ReadReq_mshr_miss_latency::.switch_cpus.data 276952559000                       # number of ReadReq MSHR miss cycles
system.cpu.dcache.ReadReq_mshr_miss_latency::total 276952559000                       # number of ReadReq MSHR miss cycles
system.cpu.dcache.ReadReq_mshr_miss_rate::.switch_cpus.data     0.248540                       # mshr miss rate for ReadReq accesses
system.cpu.dcache.ReadReq_mshr_miss_rate::total     0.248540                       # mshr miss rate for ReadReq accesses
system.cpu.dcache.ReadReq_mshr_misses::.switch_cpus.data      2959362                       # number of ReadReq MSHR misses
system.cpu.dcache.ReadReq_mshr_misses::total      2959362                       # number of ReadReq MSHR misses
system.cpu.dcache.WriteReq_accesses::.switch_cpus.data      3145946                       # number of WriteReq accesses(hits+misses)
system.cpu.dcache.WriteReq_accesses::total      3145946                       # number of WriteReq accesses(hits+misses)
system.cpu.dcache.WriteReq_avg_miss_latency::.switch_cpus.data 365172.222222                       # average WriteReq miss latency
system.cpu.dcache.WriteReq_avg_miss_latency::total 365172.222222                       # average WriteReq miss latency
system.cpu.dcache.WriteReq_avg_mshr_miss_latency::.switch_cpus.data 353309.523810                       # average WriteReq mshr miss latency
system.cpu.dcache.WriteReq_avg_mshr_miss_latency::total 353309.523810                       # average WriteReq mshr miss latency
system.cpu.dcache.WriteReq_hits::.switch_cpus.data      3145856                       # number of WriteReq hits
system.cpu.dcache.WriteReq_hits::total        3145856                       # number of WriteReq hits
system.cpu.dcache.WriteReq_miss_latency::.switch_cpus.data     32865500                       # number of WriteReq miss cycles
system.cpu.dcache.WriteReq_miss_latency::total     32865500                       # number of WriteReq miss cycles
system.cpu.dcache.WriteReq_miss_rate::.switch_cpus.data     0.000029                       # miss rate for WriteReq accesses
system.cpu.dcache.WriteReq_miss_rate::total     0.000029                       # miss rate for WriteReq accesses
system.cpu.dcache.WriteReq_misses::.switch_cpus.data           90                       # number of WriteReq misses
system.cpu.dcache.WriteReq_misses::total           90                       # number of WriteReq misses
system.cpu.dcache.WriteReq_mshr_hits::.switch_cpus.data           69                       # number of WriteReq MSHR hits
system.cpu.dcache.WriteReq_mshr_hits::total           69                       # number of WriteReq MSHR hits
system.cpu.dcache.WriteReq_mshr_miss_latency::.switch_cpus.data      7419500                       # number of WriteReq MSHR miss cycles
system.cpu.dcache.WriteReq_mshr_miss_latency::total      7419500                       # number of WriteReq MSHR miss cycles
system.cpu.dcache.WriteReq_mshr_miss_rate::.switch_cpus.data     0.000007                       # mshr miss rate for WriteReq accesses
system.cpu.dcache.WriteReq_mshr_miss_rate::total     0.000007                       # mshr miss rate for WriteReq accesses
system.cpu.dcache.WriteReq_mshr_misses::.switch_cpus.data           21                       # number of WriteReq MSHR misses
system.cpu.dcache.WriteReq_mshr_misses::total           21                       # number of WriteReq MSHR misses
system.cpu.dcache.avg_blocked_cycles::no_mshrs    84.152790                       # average number of cycles each access was blocked
system.cpu.dcache.avg_blocked_cycles::no_targets          nan                       # average number of cycles each access was blocked
system.cpu.dcache.blocked::no_mshrs           1329435                       # number of cycles access was blocked
system.cpu.dcache.blocked::no_targets               0                       # number of cycles access was blocked
system.cpu.dcache.blocked_cycles::no_mshrs    111875665                       # number of cycles access was blocked
system.cpu.dcache.blocked_cycles::no_targets            0                       # number of cycles access was blocked
system.cpu.dcache.demand_accesses::.cpu.data            2                       # number of demand (read+write) accesses
system.cpu.dcache.demand_accesses::.switch_cpus.data     15052934                       # number of demand (read+write) accesses
system.cpu.dcache.demand_accesses::total     15052936                       # number of demand (read+write) accesses
system.cpu.dcache.demand_avg_miss_latency::.switch_cpus.data 72262.466001                       # average overall miss latency
system.cpu.dcache.demand_avg_miss_latency::total 72262.459899                       # average overall miss latency
system.cpu.dcache.demand_avg_mshr_miss_latency::.switch_cpus.data 93587.068149                       # average overall mshr miss latency
system.cpu.dcache.demand_avg_mshr_miss_latency::total 93587.068149                       # average overall mshr miss latency
system.cpu.dcache.demand_hits::.cpu.data            1                       # number of demand (read+write) hits
system.cpu.dcache.demand_hits::.switch_cpus.data      3210604                       # number of demand (read+write) hits
system.cpu.dcache.demand_hits::total          3210605                       # number of demand (read+write) hits
system.cpu.dcache.demand_miss_latency::.switch_cpus.data 855755969000                       # number of demand (read+write) miss cycles
system.cpu.dcache.demand_miss_latency::total 855755969000                       # number of demand (read+write) miss cycles
system.cpu.dcache.demand_miss_rate::.cpu.data     0.500000                       # miss rate for demand accesses
system.cpu.dcache.demand_miss_rate::.switch_cpus.data     0.786712                       # miss rate for demand accesses
system.cpu.dcache.demand_miss_rate::total     0.786712                       # miss rate for demand accesses
system.cpu.dcache.demand_misses::.cpu.data            1                       # number of demand (read+write) misses
system.cpu.dcache.demand_misses::.switch_cpus.data     11842330                       # number of demand (read+write) misses
system.cpu.dcache.demand_misses::total       11842331                       # number of demand (read+write) misses
system.cpu.dcache.demand_mshr_hits::.switch_cpus.data      8882947                       # number of demand (read+write) MSHR hits
system.cpu.dcache.demand_mshr_hits::total      8882947                       # number of demand (read+write) MSHR hits
system.cpu.dcache.demand_mshr_miss_latency::.switch_cpus.data 276959978500                       # number of demand (read+write) MSHR miss cycles
system.cpu.dcache.demand_mshr_miss_latency::total 276959978500                       # number of demand (read+write) MSHR miss cycles
system.cpu.dcache.demand_mshr_miss_rate::.switch_cpus.data     0.196598                       # mshr miss rate for demand accesses
system.cpu.dcache.demand_mshr_miss_rate::total     0.196598                       # mshr miss rate for demand accesses
system.cpu.dcache.demand_mshr_misses::.switch_cpus.data      2959383                       # number of demand (read+write) MSHR misses
system.cpu.dcache.demand_mshr_misses::total      2959383                       # number of demand (read+write) MSHR misses
system.cpu.dcache.overall_accesses::.cpu.data            2                       # number of overall (read+write) accesses
system.cpu.dcache.overall_accesses::.switch_cpus.data     15052934                       # number of overall (read+write) accesses
system.cpu.dcache.overall_accesses::total     15052936                       # number of overall (read+write) accesses
system.cpu.dcache.overall_avg_miss_latency::.switch_cpus.data 72262.466001                       # average overall miss latency
system.cpu.dcache.overall_avg_miss_latency::total 72262.459899                       # average overall miss latency
system.cpu.dcache.overall_avg_mshr_miss_latency::.switch_cpus.data 93587.068149                       # average overall mshr miss latency
system.cpu.dcache.overall_avg_mshr_miss_latency::total 93587.068149                       # average overall mshr miss latency
system.cpu.dcache.overall_hits::.cpu.data            1                       # number of overall hits
system.cpu.dcache.overall_hits::.switch_cpus.data      3210604                       # number of overall hits
system.cpu.dcache.overall_hits::total         3210605                       # number of overall hits
system.cpu.dcache.overall_miss_latency::.switch_cpus.data 855755969000                       # number of overall miss cycles
system.cpu.dcache.overall_miss_latency::total 855755969000                       # number of overall miss cycles
system.cpu.dcache.overall_miss_rate::.cpu.data     0.500000                       # miss rate for overall accesses
system.cpu.dcache.overall_miss_rate::.switch_cpus.data     0.786712                       # miss rate for overall accesses
system.cpu.dcache.overall_miss_rate::total     0.786712                       # miss rate for overall accesses
system.cpu.dcache.overall_misses::.cpu.data            1                       # number of overall misses
system.cpu.dcache.overall_misses::.switch_cpus.data     11842330                       # number of overall misses
system.cpu.dcache.overall_misses::total      11842331                       # number of overall misses
system.cpu.dcache.overall_mshr_hits::.switch_cpus.data      8882947                       # number of overall MSHR hits
system.cpu.dcache.overall_mshr_hits::total      8882947                       # number of overall MSHR hits
system.cpu.dcache.overall_mshr_miss_latency::.switch_cpus.data 276959978500                       # number of overall MSHR miss cycles
system.cpu.dcache.overall_mshr_miss_latency::total 276959978500                       # number of overall MSHR miss cycles
system.cpu.dcache.overall_mshr_miss_rate::.switch_cpus.data     0.196598                       # mshr miss rate for overall accesses
system.cpu.dcache.overall_mshr_miss_rate::total     0.196598                       # mshr miss rate for overall accesses
system.cpu.dcache.overall_mshr_misses::.switch_cpus.data      2959383                       # number of overall MSHR misses
system.cpu.dcache.overall_mshr_misses::total      2959383                       # number of overall MSHR misses
system.cpu.dcache.pwrStateResidencyTicks::UNDEFINED 3618824203500                       # Cumulative time (in ticks) in various power states
system.cpu.dcache.replacements                2958869                       # number of replacements
system.cpu.dcache.tags.age_task_id_blocks_1024::0          436                       # Occupied blocks per task id
system.cpu.dcache.tags.age_task_id_blocks_1024::1           76                       # Occupied blocks per task id
system.cpu.dcache.tags.avg_refs              2.084891                       # Average number of references to valid blocks.
system.cpu.dcache.tags.data_accesses        123382869                       # Number of data accesses
system.cpu.dcache.tags.occ_blocks::.cpu.data     0.000154                       # Average occupied blocks per requestor
system.cpu.dcache.tags.occ_blocks::.switch_cpus.data   511.959787                       # Average occupied blocks per requestor
system.cpu.dcache.tags.occ_percent::.cpu.data     0.000000                       # Average percentage of cache occupancy
system.cpu.dcache.tags.occ_percent::.switch_cpus.data     0.999921                       # Average percentage of cache occupancy
system.cpu.dcache.tags.occ_percent::total     0.999922                       # Average percentage of cache occupancy
system.cpu.dcache.tags.occ_task_id_blocks::1024          512                       # Occupied blocks per task id
system.cpu.dcache.tags.occ_task_id_percent::1024            1                       # Percentage of cache occupancy per task id
system.cpu.dcache.tags.pwrStateResidencyTicks::UNDEFINED 3618824203500                       # Cumulative time (in ticks) in various power states
system.cpu.dcache.tags.sampled_refs           2959381                       # Sample count of references to valid blocks.
system.cpu.dcache.tags.tag_accesses         123382869                       # Number of tag accesses
system.cpu.dcache.tags.tagsinuse           511.959942                       # Cycle average of tags in use
system.cpu.dcache.tags.total_refs             6169986                       # Total number of references to valid blocks.
system.cpu.dcache.tags.warmup_cycle      3543119555000                       # Cycle when the warmup percentage was hit.
system.cpu.dcache.writebacks::.writebacks      1048619                       # number of writebacks
system.cpu.dcache.writebacks::total           1048619                       # number of writebacks
system.cpu.dtb.data_accesses                        2                       # DTB accesses
system.cpu.dtb.data_acv                             0                       # DTB access violations
system.cpu.dtb.data_hits                            2                       # DTB hits
system.cpu.dtb.data_misses                          0                       # DTB misses
system.cpu.dtb.fetch_accesses                       0                       # ITB accesses
system.cpu.dtb.fetch_acv                            0                       # ITB acv
system.cpu.dtb.fetch_hits                           0                       # ITB hits
system.cpu.dtb.fetch_misses                         0                       # ITB misses
system.cpu.dtb.pwrStateResidencyTicks::UNDEFINED 3618824203500                       # Cumulative time (in ticks) in various power states
system.cpu.dtb.read_accesses                        2                       # DTB read accesses
system.cpu.dtb.read_acv                             0                       # DTB read access violations
system.cpu.dtb.read_hits                            2                       # DTB read hits
system.cpu.dtb.read_misses                          0                       # DTB read misses
system.cpu.dtb.write_accesses                       0                       # DTB write accesses
system.cpu.dtb.write_acv                            0                       # DTB write access violations
system.cpu.dtb.write_hits                           0                       # DTB write hits
system.cpu.dtb.write_misses                         0                       # DTB write misses
system.cpu.icache.ReadReq_accesses::.cpu.inst           20                       # number of ReadReq accesses(hits+misses)
system.cpu.icache.ReadReq_accesses::.switch_cpus.inst     24395206                       # number of ReadReq accesses(hits+misses)
system.cpu.icache.ReadReq_accesses::total     24395226                       # number of ReadReq accesses(hits+misses)
system.cpu.icache.ReadReq_avg_miss_latency::.switch_cpus.inst 76460.317460                       # average ReadReq miss latency
system.cpu.icache.ReadReq_avg_miss_latency::total 74107.692308                       # average ReadReq miss latency
system.cpu.icache.ReadReq_avg_mshr_miss_latency::.switch_cpus.inst       105000                       # average ReadReq mshr miss latency
system.cpu.icache.ReadReq_avg_mshr_miss_latency::total       105000                       # average ReadReq mshr miss latency
system.cpu.icache.ReadReq_hits::.cpu.inst           18                       # number of ReadReq hits
system.cpu.icache.ReadReq_hits::.switch_cpus.inst     24395143                       # number of ReadReq hits
system.cpu.icache.ReadReq_hits::total        24395161                       # number of ReadReq hits
system.cpu.icache.ReadReq_miss_latency::.switch_cpus.inst      4817000                       # number of ReadReq miss cycles
system.cpu.icache.ReadReq_miss_latency::total      4817000                       # number of ReadReq miss cycles
system.cpu.icache.ReadReq_miss_rate::.cpu.inst     0.100000                       # miss rate for ReadReq accesses
system.cpu.icache.ReadReq_miss_rate::.switch_cpus.inst     0.000003                       # miss rate for ReadReq accesses
system.cpu.icache.ReadReq_miss_rate::total     0.000003                       # miss rate for ReadReq accesses
system.cpu.icache.ReadReq_misses::.cpu.inst            2                       # number of ReadReq misses
system.cpu.icache.ReadReq_misses::.switch_cpus.inst           63                       # number of ReadReq misses
system.cpu.icache.ReadReq_misses::total            65                       # number of ReadReq misses
system.cpu.icache.ReadReq_mshr_hits::.switch_cpus.inst           31                       # number of ReadReq MSHR hits
system.cpu.icache.ReadReq_mshr_hits::total           31                       # number of ReadReq MSHR hits
system.cpu.icache.ReadReq_mshr_miss_latency::.switch_cpus.inst      3360000                       # number of ReadReq MSHR miss cycles
system.cpu.icache.ReadReq_mshr_miss_latency::total      3360000                       # number of ReadReq MSHR miss cycles
system.cpu.icache.ReadReq_mshr_miss_rate::.switch_cpus.inst     0.000001                       # mshr miss rate for ReadReq accesses
system.cpu.icache.ReadReq_mshr_miss_rate::total     0.000001                       # mshr miss rate for ReadReq accesses
system.cpu.icache.ReadReq_mshr_misses::.switch_cpus.inst           32                       # number of ReadReq MSHR misses
system.cpu.icache.ReadReq_mshr_misses::total           32                       # number of ReadReq MSHR misses
system.cpu.icache.avg_blocked_cycles::no_mshrs          nan                       # average number of cycles each access was blocked
system.cpu.icache.avg_blocked_cycles::no_targets          nan                       # average number of cycles each access was blocked
system.cpu.icache.blocked::no_mshrs                 0                       # number of cycles access was blocked
system.cpu.icache.blocked::no_targets               0                       # number of cycles access was blocked
system.cpu.icache.blocked_cycles::no_mshrs            0                       # number of cycles access was blocked
system.cpu.icache.blocked_cycles::no_targets            0                       # number of cycles access was blocked
system.cpu.icache.demand_accesses::.cpu.inst           20                       # number of demand (read+write) accesses
system.cpu.icache.demand_accesses::.switch_cpus.inst     24395206                       # number of demand (read+write) accesses
system.cpu.icache.demand_accesses::total     24395226                       # number of demand (read+write) accesses
system.cpu.icache.demand_avg_miss_latency::.switch_cpus.inst 76460.317460                       # average overall miss latency
system.cpu.icache.demand_avg_miss_latency::total 74107.692308                       # average overall miss latency
system.cpu.icache.demand_avg_mshr_miss_latency::.switch_cpus.inst       105000                       # average overall mshr miss latency
system.cpu.icache.demand_avg_mshr_miss_latency::total       105000                       # average overall mshr miss latency
system.cpu.icache.demand_hits::.cpu.inst           18                       # number of demand (read+write) hits
system.cpu.icache.demand_hits::.switch_cpus.inst     24395143                       # number of demand (read+write) hits
system.cpu.icache.demand_hits::total         24395161                       # number of demand (read+write) hits
system.cpu.icache.demand_miss_latency::.switch_cpus.inst      4817000                       # number of demand (read+write) miss cycles
system.cpu.icache.demand_miss_latency::total      4817000                       # number of demand (read+write) miss cycles
system.cpu.icache.demand_miss_rate::.cpu.inst     0.100000                       # miss rate for demand accesses
system.cpu.icache.demand_miss_rate::.switch_cpus.inst     0.000003                       # miss rate for demand accesses
system.cpu.icache.demand_miss_rate::total     0.000003                       # miss rate for demand accesses
system.cpu.icache.demand_misses::.cpu.inst            2                       # number of demand (read+write) misses
system.cpu.icache.demand_misses::.switch_cpus.inst           63                       # number of demand (read+write) misses
system.cpu.icache.demand_misses::total             65                       # number of demand (read+write) misses
system.cpu.icache.demand_mshr_hits::.switch_cpus.inst           31                       # number of demand (read+write) MSHR hits
system.cpu.icache.demand_mshr_hits::total           31                       # number of demand (read+write) MSHR hits
system.cpu.icache.demand_mshr_miss_latency::.switch_cpus.inst      3360000                       # number of demand (read+write) MSHR miss cycles
system.cpu.icache.demand_mshr_miss_latency::total      3360000                       # number of demand (read+write) MSHR miss cycles
system.cpu.icache.demand_mshr_miss_rate::.switch_cpus.inst     0.000001                       # mshr miss rate for demand accesses
system.cpu.icache.demand_mshr_miss_rate::total     0.000001                       # mshr miss rate for demand accesses
system.cpu.icache.demand_mshr_misses::.switch_cpus.inst           32                       # number of demand (read+write) MSHR misses
system.cpu.icache.demand_mshr_misses::total           32                       # number of demand (read+write) MSHR misses
system.cpu.icache.overall_accesses::.cpu.inst           20                       # number of overall (read+write) accesses
system.cpu.icache.overall_accesses::.switch_cpus.inst     24395206                       # number of overall (read+write) accesses
system.cpu.icache.overall_accesses::total     24395226                       # number of overall (read+write) accesses
system.cpu.icache.overall_avg_miss_latency::.switch_cpus.inst 76460.317460                       # average overall miss latency
system.cpu.icache.overall_avg_miss_latency::total 74107.692308                       # average overall miss latency
system.cpu.icache.overall_avg_mshr_miss_latency::.switch_cpus.inst       105000                       # average overall mshr miss latency
system.cpu.icache.overall_avg_mshr_miss_latency::total       105000                       # average overall mshr miss latency
system.cpu.icache.overall_hits::.cpu.inst           18                       # number of overall hits
system.cpu.icache.overall_hits::.switch_cpus.inst     24395143                       # number of overall hits
system.cpu.icache.overall_hits::total        24395161                       # number of overall hits
system.cpu.icache.overall_miss_latency::.switch_cpus.inst      4817000                       # number of overall miss cycles
system.cpu.icache.overall_miss_latency::total      4817000                       # number of overall miss cycles
system.cpu.icache.overall_miss_rate::.cpu.inst     0.100000                       # miss rate for overall accesses
system.cpu.icache.overall_miss_rate::.switch_cpus.inst     0.000003                       # miss rate for overall accesses
system.cpu.icache.overall_miss_rate::total     0.000003                       # miss rate for overall accesses
system.cpu.icache.overall_misses::.cpu.inst            2                       # number of overall misses
system.cpu.icache.overall_misses::.switch_cpus.inst           63                       # number of overall misses
system.cpu.icache.overall_misses::total            65                       # number of overall misses
system.cpu.icache.overall_mshr_hits::.switch_cpus.inst           31                       # number of overall MSHR hits
system.cpu.icache.overall_mshr_hits::total           31                       # number of overall MSHR hits
system.cpu.icache.overall_mshr_miss_latency::.switch_cpus.inst      3360000                       # number of overall MSHR miss cycles
system.cpu.icache.overall_mshr_miss_latency::total      3360000                       # number of overall MSHR miss cycles
system.cpu.icache.overall_mshr_miss_rate::.switch_cpus.inst     0.000001                       # mshr miss rate for overall accesses
system.cpu.icache.overall_mshr_miss_rate::total     0.000001                       # mshr miss rate for overall accesses
system.cpu.icache.overall_mshr_misses::.switch_cpus.inst           32                       # number of overall MSHR misses
system.cpu.icache.overall_mshr_misses::total           32                       # number of overall MSHR misses
system.cpu.icache.pwrStateResidencyTicks::UNDEFINED 3618824203500                       # Cumulative time (in ticks) in various power states
system.cpu.icache.replacements                      0                       # number of replacements
system.cpu.icache.tags.age_task_id_blocks_1024::3            1                       # Occupied blocks per task id
system.cpu.icache.tags.age_task_id_blocks_1024::4           33                       # Occupied blocks per task id
system.cpu.icache.tags.avg_refs          717505.735294                       # Average number of references to valid blocks.
system.cpu.icache.tags.data_accesses        195161842                       # Number of data accesses
system.cpu.icache.tags.occ_blocks::.cpu.inst     2.000000                       # Average occupied blocks per requestor
system.cpu.icache.tags.occ_blocks::.switch_cpus.inst    24.955409                       # Average occupied blocks per requestor
system.cpu.icache.tags.occ_percent::.cpu.inst     0.003906                       # Average percentage of cache occupancy
system.cpu.icache.tags.occ_percent::.switch_cpus.inst     0.048741                       # Average percentage of cache occupancy
system.cpu.icache.tags.occ_percent::total     0.052647                       # Average percentage of cache occupancy
system.cpu.icache.tags.occ_task_id_blocks::1024           34                       # Occupied blocks per task id
system.cpu.icache.tags.occ_task_id_percent::1024     0.066406                       # Percentage of cache occupancy per task id
system.cpu.icache.tags.pwrStateResidencyTicks::UNDEFINED 3618824203500                       # Cumulative time (in ticks) in various power states
system.cpu.icache.tags.sampled_refs                34                       # Sample count of references to valid blocks.
system.cpu.icache.tags.tag_accesses         195161842                       # Number of tag accesses
system.cpu.icache.tags.tagsinuse            26.955409                       # Cycle average of tags in use
system.cpu.icache.tags.total_refs            24395195                       # Total number of references to valid blocks.
system.cpu.icache.tags.warmup_cycle      3543119551000                       # Cycle when the warmup percentage was hit.
system.cpu.idle_fraction                            0                       # Percentage of idle cycles
system.cpu.itb.data_accesses                        0                       # DTB accesses
system.cpu.itb.data_acv                             0                       # DTB access violations
system.cpu.itb.data_hits                            0                       # DTB hits
system.cpu.itb.data_misses                          0                       # DTB misses
system.cpu.itb.fetch_accesses                      20                       # ITB accesses
system.cpu.itb.fetch_acv                            0                       # ITB acv
system.cpu.itb.fetch_hits                          20                       # ITB hits
system.cpu.itb.fetch_misses                         0                       # ITB misses
system.cpu.itb.pwrStateResidencyTicks::UNDEFINED 3618824203500                       # Cumulative time (in ticks) in various power states
system.cpu.itb.read_accesses                        0                       # DTB read accesses
system.cpu.itb.read_acv                             0                       # DTB read access violations
system.cpu.itb.read_hits                            0                       # DTB read hits
system.cpu.itb.read_misses                          0                       # DTB read misses
system.cpu.itb.write_accesses                       0                       # DTB write accesses
system.cpu.itb.write_acv                            0                       # DTB write access violations
system.cpu.itb.write_hits                           0                       # DTB write hits
system.cpu.itb.write_misses                         0                       # DTB write misses
system.cpu.not_idle_fraction                        1                       # Percentage of non-idle cycles
system.cpu.numCycles                               20                       # number of cpu cycles simulated
system.cpu.numPwrStateTransitions                   1                       # Number of power state transitions
system.cpu.numWorkItemsCompleted                    0                       # number of work items this cpu completed
system.cpu.numWorkItemsStarted                      0                       # number of work items this cpu started
system.cpu.num_busy_cycles                         20                       # Number of busy cycles
system.cpu.num_conditional_control_insts            4                       # number of instructions that are conditional controls
system.cpu.num_fp_alu_accesses                      0                       # Number of float alu accesses
system.cpu.num_fp_insts                             0                       # number of float instructions
system.cpu.num_fp_register_reads                    0                       # number of times the floating registers were read
system.cpu.num_fp_register_writes                   0                       # number of times the floating registers were written
system.cpu.num_func_calls                           0                       # number of times a function call or return occured
system.cpu.num_idle_cycles                          0                       # Number of idle cycles
system.cpu.num_int_alu_accesses                    20                       # Number of integer alu accesses
system.cpu.num_int_insts                           20                       # number of integer instructions
system.cpu.num_int_register_reads                  32                       # number of times the integer registers were read
system.cpu.num_int_register_writes                 16                       # number of times the integer registers were written
system.cpu.num_load_insts                           2                       # Number of load instructions
system.cpu.num_mem_refs                             2                       # number of memory refs
system.cpu.num_store_insts                          0                       # Number of store instructions
system.cpu.num_vec_alu_accesses                     0                       # Number of vector alu accesses
system.cpu.num_vec_insts                            0                       # number of vector instructions
system.cpu.num_vec_register_reads                   0                       # number of times the vector registers were read
system.cpu.num_vec_register_writes                  0                       # number of times the vector registers were written
system.cpu.op_class::No_OpClass                     0      0.00%      0.00% # Class of executed instruction
system.cpu.op_class::IntAlu                        18     90.00%     90.00% # Class of executed instruction
system.cpu.op_class::IntMult                        0      0.00%     90.00% # Class of executed instruction
system.cpu.op_class::IntDiv                         0      0.00%     90.00% # Class of executed instruction
system.cpu.op_class::FloatAdd                       0      0.00%     90.00% # Class of executed instruction
system.cpu.op_class::FloatCmp                       0      0.00%     90.00% # Class of executed instruction
system.cpu.op_class::FloatCvt                       0      0.00%     90.00% # Class of executed instruction
system.cpu.op_class::FloatMult                      0      0.00%     90.00% # Class of executed instruction
system.cpu.op_class::FloatMultAcc                   0      0.00%     90.00% # Class of executed instruction
system.cpu.op_class::FloatDiv                       0      0.00%     90.00% # Class of executed instruction
system.cpu.op_class::FloatMisc                      0      0.00%     90.00% # Class of executed instruction
system.cpu.op_class::FloatSqrt                      0      0.00%     90.00% # Class of executed instruction
system.cpu.op_class::SimdAdd                        0      0.00%     90.00% # Class of executed instruction
system.cpu.op_class::SimdAddAcc                     0      0.00%     90.00% # Class of executed instruction
system.cpu.op_class::SimdAlu                        0      0.00%     90.00% # Class of executed instruction
system.cpu.op_class::SimdCmp                        0      0.00%     90.00% # Class of executed instruction
system.cpu.op_class::SimdCvt                        0      0.00%     90.00% # Class of executed instruction
system.cpu.op_class::SimdMisc                       0      0.00%     90.00% # Class of executed instruction
system.cpu.op_class::SimdMult                       0      0.00%     90.00% # Class of executed instruction
system.cpu.op_class::SimdMultAcc                    0      0.00%     90.00% # Class of executed instruction
system.cpu.op_class::SimdShift                      0      0.00%     90.00% # Class of executed instruction
system.cpu.op_class::SimdShiftAcc                   0      0.00%     90.00% # Class of executed instruction
system.cpu.op_class::SimdSqrt                       0      0.00%     90.00% # Class of executed instruction
system.cpu.op_class::SimdFloatAdd                   0      0.00%     90.00% # Class of executed instruction
system.cpu.op_class::SimdFloatAlu                   0      0.00%     90.00% # Class of executed instruction
system.cpu.op_class::SimdFloatCmp                   0      0.00%     90.00% # Class of executed instruction
system.cpu.op_class::SimdFloatCvt                   0      0.00%     90.00% # Class of executed instruction
system.cpu.op_class::SimdFloatDiv                   0      0.00%     90.00% # Class of executed instruction
system.cpu.op_class::SimdFloatMisc                  0      0.00%     90.00% # Class of executed instruction
system.cpu.op_class::SimdFloatMult                  0      0.00%     90.00% # Class of executed instruction
system.cpu.op_class::SimdFloatMultAcc               0      0.00%     90.00% # Class of executed instruction
system.cpu.op_class::SimdFloatSqrt                  0      0.00%     90.00% # Class of executed instruction
system.cpu.op_class::SimdAes                        0      0.00%     90.00% # Class of executed instruction
system.cpu.op_class::SimdAesMix                     0      0.00%     90.00% # Class of executed instruction
system.cpu.op_class::SimdSha1Hash                   0      0.00%     90.00% # Class of executed instruction
system.cpu.op_class::SimdSha1Hash2                  0      0.00%     90.00% # Class of executed instruction
system.cpu.op_class::SimdSha256Hash                 0      0.00%     90.00% # Class of executed instruction
system.cpu.op_class::SimdSha256Hash2                0      0.00%     90.00% # Class of executed instruction
system.cpu.op_class::SimdShaSigma2                  0      0.00%     90.00% # Class of executed instruction
system.cpu.op_class::SimdShaSigma3                  0      0.00%     90.00% # Class of executed instruction
system.cpu.op_class::MemRead                        2     10.00%    100.00% # Class of executed instruction
system.cpu.op_class::MemWrite                       0      0.00%    100.00% # Class of executed instruction
system.cpu.op_class::FloatMemRead                   0      0.00%    100.00% # Class of executed instruction
system.cpu.op_class::FloatMemWrite                  0      0.00%    100.00% # Class of executed instruction
system.cpu.op_class::IprAccess                      0      0.00%    100.00% # Class of executed instruction
system.cpu.op_class::InstPrefetch                   0      0.00%    100.00% # Class of executed instruction
system.cpu.op_class::total                         20                       # Class of executed instruction
system.cpu.pwrStateResidencyTicks::ON           10000                       # Cumulative time (in ticks) in various power states
system.cpu.pwrStateResidencyTicks::OFF    75704643000                       # Cumulative time (in ticks) in various power states
system.cpu.workload.numSyscalls                     0                       # Number of system calls
system.cpu_clk_domain.clock                       500                       # Clock period in ticks
system.cpu_voltage_domain.voltage                   1                       # Voltage in Volts
system.l2.ReadCleanReq_accesses::.cpu.inst            2                       # number of ReadCleanReq accesses(hits+misses)
system.l2.ReadCleanReq_accesses::.switch_cpus.inst           32                       # number of ReadCleanReq accesses(hits+misses)
system.l2.ReadCleanReq_accesses::total             34                       # number of ReadCleanReq accesses(hits+misses)
system.l2.ReadCleanReq_avg_miss_latency::.switch_cpus.inst       103500                       # average ReadCleanReq miss latency
system.l2.ReadCleanReq_avg_miss_latency::total 97411.764706                       # average ReadCleanReq miss latency
system.l2.ReadCleanReq_avg_mshr_miss_latency::.switch_cpus.inst        93500                       # average ReadCleanReq mshr miss latency
system.l2.ReadCleanReq_avg_mshr_miss_latency::total        93500                       # average ReadCleanReq mshr miss latency
system.l2.ReadCleanReq_miss_latency::.switch_cpus.inst      3312000                       # number of ReadCleanReq miss cycles
system.l2.ReadCleanReq_miss_latency::total      3312000                       # number of ReadCleanReq miss cycles
system.l2.ReadCleanReq_miss_rate::.cpu.inst            1                       # miss rate for ReadCleanReq accesses
system.l2.ReadCleanReq_miss_rate::.switch_cpus.inst            1                       # miss rate for ReadCleanReq accesses
system.l2.ReadCleanReq_miss_rate::total             1                       # miss rate for ReadCleanReq accesses
system.l2.ReadCleanReq_misses::.cpu.inst            2                       # number of ReadCleanReq misses
system.l2.ReadCleanReq_misses::.switch_cpus.inst           32                       # number of ReadCleanReq misses
system.l2.ReadCleanReq_misses::total               34                       # number of ReadCleanReq misses
system.l2.ReadCleanReq_mshr_miss_latency::.switch_cpus.inst      2992000                       # number of ReadCleanReq MSHR miss cycles
system.l2.ReadCleanReq_mshr_miss_latency::total      2992000                       # number of ReadCleanReq MSHR miss cycles
system.l2.ReadCleanReq_mshr_miss_rate::.switch_cpus.inst            1                       # mshr miss rate for ReadCleanReq accesses
system.l2.ReadCleanReq_mshr_miss_rate::total     0.941176                       # mshr miss rate for ReadCleanReq accesses
system.l2.ReadCleanReq_mshr_misses::.switch_cpus.inst           32                       # number of ReadCleanReq MSHR misses
system.l2.ReadCleanReq_mshr_misses::total           32                       # number of ReadCleanReq MSHR misses
system.l2.ReadExReq_accesses::.switch_cpus.data           21                       # number of ReadExReq accesses(hits+misses)
system.l2.ReadExReq_accesses::total                21                       # number of ReadExReq accesses(hits+misses)
system.l2.ReadExReq_avg_miss_latency::.switch_cpus.data 351619.047619                       # average ReadExReq miss latency
system.l2.ReadExReq_avg_miss_latency::total 351619.047619                       # average ReadExReq miss latency
system.l2.ReadExReq_avg_mshr_miss_latency::.switch_cpus.data 341619.047619                       # average ReadExReq mshr miss latency
system.l2.ReadExReq_avg_mshr_miss_latency::total 341619.047619                       # average ReadExReq mshr miss latency
system.l2.ReadExReq_miss_latency::.switch_cpus.data      7384000                       # number of ReadExReq miss cycles
system.l2.ReadExReq_miss_latency::total       7384000                       # number of ReadExReq miss cycles
system.l2.ReadExReq_miss_rate::.switch_cpus.data            1                       # miss rate for ReadExReq accesses
system.l2.ReadExReq_miss_rate::total                1                       # miss rate for ReadExReq accesses
system.l2.ReadExReq_misses::.switch_cpus.data           21                       # number of ReadExReq misses
system.l2.ReadExReq_misses::total                  21                       # number of ReadExReq misses
system.l2.ReadExReq_mshr_miss_latency::.switch_cpus.data      7174000                       # number of ReadExReq MSHR miss cycles
system.l2.ReadExReq_mshr_miss_latency::total      7174000                       # number of ReadExReq MSHR miss cycles
system.l2.ReadExReq_mshr_miss_rate::.switch_cpus.data            1                       # mshr miss rate for ReadExReq accesses
system.l2.ReadExReq_mshr_miss_rate::total            1                       # mshr miss rate for ReadExReq accesses
system.l2.ReadExReq_mshr_misses::.switch_cpus.data           21                       # number of ReadExReq MSHR misses
system.l2.ReadExReq_mshr_misses::total             21                       # number of ReadExReq MSHR misses
system.l2.ReadSharedReq_accesses::.cpu.data            1                       # number of ReadSharedReq accesses(hits+misses)
system.l2.ReadSharedReq_accesses::.switch_cpus.data      2959361                       # number of ReadSharedReq accesses(hits+misses)
system.l2.ReadSharedReq_accesses::total       2959362                       # number of ReadSharedReq accesses(hits+misses)
system.l2.ReadSharedReq_avg_miss_latency::.switch_cpus.data 91923.462193                       # average ReadSharedReq miss latency
system.l2.ReadSharedReq_avg_miss_latency::total 91923.431131                       # average ReadSharedReq miss latency
system.l2.ReadSharedReq_avg_mshr_miss_latency::.switch_cpus.data 81923.468952                       # average ReadSharedReq mshr miss latency
system.l2.ReadSharedReq_avg_mshr_miss_latency::total 81923.468952                       # average ReadSharedReq mshr miss latency
system.l2.ReadSharedReq_miss_latency::.switch_cpus.data 272034709000                       # number of ReadSharedReq miss cycles
system.l2.ReadSharedReq_miss_latency::total 272034709000                       # number of ReadSharedReq miss cycles
system.l2.ReadSharedReq_miss_rate::.cpu.data            1                       # miss rate for ReadSharedReq accesses
system.l2.ReadSharedReq_miss_rate::.switch_cpus.data            1                       # miss rate for ReadSharedReq accesses
system.l2.ReadSharedReq_miss_rate::total            1                       # miss rate for ReadSharedReq accesses
system.l2.ReadSharedReq_misses::.cpu.data            1                       # number of ReadSharedReq misses
system.l2.ReadSharedReq_misses::.switch_cpus.data      2959361                       # number of ReadSharedReq misses
system.l2.ReadSharedReq_misses::total         2959362                       # number of ReadSharedReq misses
system.l2.ReadSharedReq_mshr_miss_latency::.switch_cpus.data 242441119000                       # number of ReadSharedReq MSHR miss cycles
system.l2.ReadSharedReq_mshr_miss_latency::total 242441119000                       # number of ReadSharedReq MSHR miss cycles
system.l2.ReadSharedReq_mshr_miss_rate::.switch_cpus.data            1                       # mshr miss rate for ReadSharedReq accesses
system.l2.ReadSharedReq_mshr_miss_rate::total     1.000000                       # mshr miss rate for ReadSharedReq accesses
system.l2.ReadSharedReq_mshr_misses::.switch_cpus.data      2959361                       # number of ReadSharedReq MSHR misses
system.l2.ReadSharedReq_mshr_misses::total      2959361                       # number of ReadSharedReq MSHR misses
system.l2.WritebackDirty_accesses::.writebacks      1048619                       # number of WritebackDirty accesses(hits+misses)
system.l2.WritebackDirty_accesses::total      1048619                       # number of WritebackDirty accesses(hits+misses)
system.l2.WritebackDirty_hits::.writebacks      1048619                       # number of WritebackDirty hits
system.l2.WritebackDirty_hits::total          1048619                       # number of WritebackDirty hits
system.l2.avg_blocked_cycles::no_mshrs            nan                       # average number of cycles each access was blocked
system.l2.avg_blocked_cycles::no_targets          nan                       # average number of cycles each access was blocked
system.l2.blocked::no_mshrs                         0                       # number of cycles access was blocked
system.l2.blocked::no_targets                       0                       # number of cycles access was blocked
system.l2.blocked_cycles::no_mshrs                  0                       # number of cycles access was blocked
system.l2.blocked_cycles::no_targets                0                       # number of cycles access was blocked
system.l2.demand_accesses::.cpu.inst                2                       # number of demand (read+write) accesses
system.l2.demand_accesses::.cpu.data                1                       # number of demand (read+write) accesses
system.l2.demand_accesses::.switch_cpus.inst           32                       # number of demand (read+write) accesses
system.l2.demand_accesses::.switch_cpus.data      2959382                       # number of demand (read+write) accesses
system.l2.demand_accesses::total              2959417                       # number of demand (read+write) accesses
system.l2.demand_avg_miss_latency::.switch_cpus.inst       103500                       # average overall miss latency
system.l2.demand_avg_miss_latency::.switch_cpus.data 91925.305013                       # average overall miss latency
system.l2.demand_avg_miss_latency::total 91925.336984                       # average overall miss latency
system.l2.demand_avg_mshr_miss_latency::.switch_cpus.inst        93500                       # average overall mshr miss latency
system.l2.demand_avg_mshr_miss_latency::.switch_cpus.data 81925.311771                       # average overall mshr miss latency
system.l2.demand_avg_mshr_miss_latency::total 81925.436928                       # average overall mshr miss latency
system.l2.demand_miss_latency::.switch_cpus.inst      3312000                       # number of demand (read+write) miss cycles
system.l2.demand_miss_latency::.switch_cpus.data 272042093000                       # number of demand (read+write) miss cycles
system.l2.demand_miss_latency::total     272045405000                       # number of demand (read+write) miss cycles
system.l2.demand_miss_rate::.cpu.inst               1                       # miss rate for demand accesses
system.l2.demand_miss_rate::.cpu.data               1                       # miss rate for demand accesses
system.l2.demand_miss_rate::.switch_cpus.inst            1                       # miss rate for demand accesses
system.l2.demand_miss_rate::.switch_cpus.data            1                       # miss rate for demand accesses
system.l2.demand_miss_rate::total                   1                       # miss rate for demand accesses
system.l2.demand_misses::.cpu.inst                  2                       # number of demand (read+write) misses
system.l2.demand_misses::.cpu.data                  1                       # number of demand (read+write) misses
system.l2.demand_misses::.switch_cpus.inst           32                       # number of demand (read+write) misses
system.l2.demand_misses::.switch_cpus.data      2959382                       # number of demand (read+write) misses
system.l2.demand_misses::total                2959417                       # number of demand (read+write) misses
system.l2.demand_mshr_miss_latency::.switch_cpus.inst      2992000                       # number of demand (read+write) MSHR miss cycles
system.l2.demand_mshr_miss_latency::.switch_cpus.data 242448293000                       # number of demand (read+write) MSHR miss cycles
system.l2.demand_mshr_miss_latency::total 242451285000                       # number of demand (read+write) MSHR miss cycles
system.l2.demand_mshr_miss_rate::.switch_cpus.inst            1                       # mshr miss rate for demand accesses
system.l2.demand_mshr_miss_rate::.switch_cpus.data            1                       # mshr miss rate for demand accesses
system.l2.demand_mshr_miss_rate::total       0.999999                       # mshr miss rate for demand accesses
system.l2.demand_mshr_misses::.switch_cpus.inst           32                       # number of demand (read+write) MSHR misses
system.l2.demand_mshr_misses::.switch_cpus.data      2959382                       # number of demand (read+write) MSHR misses
system.l2.demand_mshr_misses::total           2959414                       # number of demand (read+write) MSHR misses
system.l2.overall_accesses::.cpu.inst               2                       # number of overall (read+write) accesses
system.l2.overall_accesses::.cpu.data               1                       # number of overall (read+write) accesses
system.l2.overall_accesses::.switch_cpus.inst           32                       # number of overall (read+write) accesses
system.l2.overall_accesses::.switch_cpus.data      2959382                       # number of overall (read+write) accesses
system.l2.overall_accesses::total             2959417                       # number of overall (read+write) accesses
system.l2.overall_avg_miss_latency::.switch_cpus.inst       103500                       # average overall miss latency
system.l2.overall_avg_miss_latency::.switch_cpus.data 91925.305013                       # average overall miss latency
system.l2.overall_avg_miss_latency::total 91925.336984                       # average overall miss latency
system.l2.overall_avg_mshr_miss_latency::.switch_cpus.inst        93500                       # average overall mshr miss latency
system.l2.overall_avg_mshr_miss_latency::.switch_cpus.data 81925.311771                       # average overall mshr miss latency
system.l2.overall_avg_mshr_miss_latency::total 81925.436928                       # average overall mshr miss latency
system.l2.overall_miss_latency::.switch_cpus.inst      3312000                       # number of overall miss cycles
system.l2.overall_miss_latency::.switch_cpus.data 272042093000                       # number of overall miss cycles
system.l2.overall_miss_latency::total    272045405000                       # number of overall miss cycles
system.l2.overall_miss_rate::.cpu.inst              1                       # miss rate for overall accesses
system.l2.overall_miss_rate::.cpu.data              1                       # miss rate for overall accesses
system.l2.overall_miss_rate::.switch_cpus.inst            1                       # miss rate for overall accesses
system.l2.overall_miss_rate::.switch_cpus.data            1                       # miss rate for overall accesses
system.l2.overall_miss_rate::total                  1                       # miss rate for overall accesses
system.l2.overall_misses::.cpu.inst                 2                       # number of overall misses
system.l2.overall_misses::.cpu.data                 1                       # number of overall misses
system.l2.overall_misses::.switch_cpus.inst           32                       # number of overall misses
system.l2.overall_misses::.switch_cpus.data      2959382                       # number of overall misses
system.l2.overall_misses::total               2959417                       # number of overall misses
system.l2.overall_mshr_miss_latency::.switch_cpus.inst      2992000                       # number of overall MSHR miss cycles
system.l2.overall_mshr_miss_latency::.switch_cpus.data 242448293000                       # number of overall MSHR miss cycles
system.l2.overall_mshr_miss_latency::total 242451285000                       # number of overall MSHR miss cycles
system.l2.overall_mshr_miss_rate::.switch_cpus.inst            1                       # mshr miss rate for overall accesses
system.l2.overall_mshr_miss_rate::.switch_cpus.data            1                       # mshr miss rate for overall accesses
system.l2.overall_mshr_miss_rate::total      0.999999                       # mshr miss rate for overall accesses
system.l2.overall_mshr_misses::.switch_cpus.inst           32                       # number of overall MSHR misses
system.l2.overall_mshr_misses::.switch_cpus.data      2959382                       # number of overall MSHR misses
system.l2.overall_mshr_misses::total          2959414                       # number of overall MSHR misses
system.l2.pwrStateResidencyTicks::UNDEFINED 3618824203500                       # Cumulative time (in ticks) in various power states
system.l2.replacements                        2926647                       # number of replacements
system.l2.tags.age_task_id_blocks_1024::0          436                       # Occupied blocks per task id
system.l2.tags.age_task_id_blocks_1024::1         4076                       # Occupied blocks per task id
system.l2.tags.age_task_id_blocks_1024::2        28256                       # Occupied blocks per task id
system.l2.tags.avg_refs                      1.999815                       # Average number of references to valid blocks.
system.l2.tags.data_accesses                 97651975                       # Number of data accesses
system.l2.tags.occ_blocks::.cpu.inst         0.020043                       # Average occupied blocks per requestor
system.l2.tags.occ_blocks::.cpu.data         0.009494                       # Average occupied blocks per requestor
system.l2.tags.occ_blocks::.switch_cpus.inst     0.316561                       # Average occupied blocks per requestor
system.l2.tags.occ_blocks::.switch_cpus.data 32603.878741                       # Average occupied blocks per requestor
system.l2.tags.occ_percent::.cpu.inst        0.000001                       # Average percentage of cache occupancy
system.l2.tags.occ_percent::.cpu.data        0.000000                       # Average percentage of cache occupancy
system.l2.tags.occ_percent::.switch_cpus.inst     0.000010                       # Average percentage of cache occupancy
system.l2.tags.occ_percent::.switch_cpus.data     0.994991                       # Average percentage of cache occupancy
system.l2.tags.occ_percent::total            0.995002                       # Average percentage of cache occupancy
system.l2.tags.occ_task_id_blocks::1024         32768                       # Occupied blocks per task id
system.l2.tags.occ_task_id_percent::1024            1                       # Percentage of cache occupancy per task id
system.l2.tags.pwrStateResidencyTicks::UNDEFINED 3618824203500                       # Cumulative time (in ticks) in various power states
system.l2.tags.sampled_refs                   2959415                       # Sample count of references to valid blocks.
system.l2.tags.tag_accesses                  97651975                       # Number of tag accesses
system.l2.tags.tagsinuse                 32604.224839                       # Cycle average of tags in use
system.l2.tags.total_refs                     5918283                       # Total number of references to valid blocks.
system.l2.tags.warmup_cycle              3543119551000                       # Cycle when the warmup percentage was hit.
system.l2.writebacks::.writebacks             1048619                       # number of writebacks
system.l2.writebacks::total                   1048619                       # number of writebacks
system.mem_ctrls.avgBusLat                    5000.00                       # Average bus latency per DRAM burst
system.mem_ctrls.avgGap                      18888.22                       # Average gap between requests
system.mem_ctrls.avgMemAccLat                40382.82                       # Average memory access latency per DRAM burst
system.mem_ctrls.avgPriority_.writebacks::samples   1048607.00                       # Average QoS priority value for accepted requests
system.mem_ctrls.avgPriority_.switch_cpus.inst::samples        32.00                       # Average QoS priority value for accepted requests
system.mem_ctrls.avgPriority_.switch_cpus.data::samples   2959346.00                       # Average QoS priority value for accepted requests
system.mem_ctrls.avgQLat                     21632.82                       # Average queueing delay per DRAM burst
system.mem_ctrls.avgRdBW                      2501.83                       # Average DRAM read bandwidth in MiByte/s
system.mem_ctrls.avgRdBWSys                   2501.86                       # Average system read bandwidth in MiByte/s
system.mem_ctrls.avgRdQLen                       3.37                       # Average read queue length when enqueuing
system.mem_ctrls.avgWrBW                       886.46                       # Average achieved write bandwidth in MiByte/s
system.mem_ctrls.avgWrBWSys                    886.49                       # Average system write bandwidth in MiByte/s
system.mem_ctrls.avgWrQLen                      20.37                       # Average write queue length when enqueuing
system.mem_ctrls.busUtil                        26.47                       # Data bus utilization in percentage
system.mem_ctrls.busUtilRead                    19.55                       # Data bus utilization in percentage for reads
system.mem_ctrls.busUtilWrite                    6.93                       # Data bus utilization in percentage for writes
system.mem_ctrls.bw_inst_read::.cpu.inst         1691                       # Instruction read bandwidth from this memory (bytes/s)
system.mem_ctrls.bw_inst_read::.switch_cpus.inst        27052                       # Instruction read bandwidth from this memory (bytes/s)
system.mem_ctrls.bw_inst_read::total            28743                       # Instruction read bandwidth from this memory (bytes/s)
system.mem_ctrls.bw_read::.cpu.inst              1691                       # Total read bandwidth from this memory (bytes/s)
system.mem_ctrls.bw_read::.cpu.data               845                       # Total read bandwidth from this memory (bytes/s)
system.mem_ctrls.bw_read::.switch_cpus.inst        27052                       # Total read bandwidth from this memory (bytes/s)
system.mem_ctrls.bw_read::.switch_cpus.data   2501831955                       # Total read bandwidth from this memory (bytes/s)
system.mem_ctrls.bw_read::total            2501861543                       # Total read bandwidth from this memory (bytes/s)
system.mem_ctrls.bw_total::.writebacks      886492618                       # Total bandwidth to/from this memory (bytes/s)
system.mem_ctrls.bw_total::.cpu.inst             1691                       # Total bandwidth to/from this memory (bytes/s)
system.mem_ctrls.bw_total::.cpu.data              845                       # Total bandwidth to/from this memory (bytes/s)
system.mem_ctrls.bw_total::.switch_cpus.inst        27052                       # Total bandwidth to/from this memory (bytes/s)
system.mem_ctrls.bw_total::.switch_cpus.data   2501831955                       # Total bandwidth to/from this memory (bytes/s)
system.mem_ctrls.bw_total::total           3388354161                       # Total bandwidth to/from this memory (bytes/s)
system.mem_ctrls.bw_write::.writebacks      886492618                       # Write bandwidth from this memory (bytes/s)
system.mem_ctrls.bw_write::total            886492618                       # Write bandwidth from this memory (bytes/s)
system.mem_ctrls.bytesPerActivate::samples       268109                       # Bytes accessed per row activation
system.mem_ctrls.bytesPerActivate::mean    956.733985                       # Bytes accessed per row activation
system.mem_ctrls.bytesPerActivate::gmean   921.450436                       # Bytes accessed per row activation
system.mem_ctrls.bytesPerActivate::stdev   190.887004                       # Bytes accessed per row activation
system.mem_ctrls.bytesPerActivate::0-127           72      0.03%      0.03% # Bytes accessed per row activation
system.mem_ctrls.bytesPerActivate::128-255          126      0.05%      0.07% # Bytes accessed per row activation
system.mem_ctrls.bytesPerActivate::256-383        12590      4.70%      4.77% # Bytes accessed per row activation
system.mem_ctrls.bytesPerActivate::384-511         3916      1.46%      6.23% # Bytes accessed per row activation
system.mem_ctrls.bytesPerActivate::512-639         5759      2.15%      8.38% # Bytes accessed per row activation
system.mem_ctrls.bytesPerActivate::640-767          519      0.19%      8.57% # Bytes accessed per row activation
system.mem_ctrls.bytesPerActivate::768-895        12036      4.49%     13.06% # Bytes accessed per row activation
system.mem_ctrls.bytesPerActivate::896-1023          117      0.04%     13.10% # Bytes accessed per row activation
system.mem_ctrls.bytesPerActivate::1024-1151       232974     86.90%    100.00% # Bytes accessed per row activation
system.mem_ctrls.bytesPerActivate::total       268109                       # Bytes accessed per row activation
system.mem_ctrls.bytesReadDRAM              189400192                       # Total number of bytes read from DRAM
system.mem_ctrls.bytesReadSys               189402432                       # Total read bytes from the system interface side
system.mem_ctrls.bytesReadWrQ                    2240                       # Total number of bytes read from write queue
system.mem_ctrls.bytesWritten                67108864                       # Total number of bytes written to DRAM
system.mem_ctrls.bytesWrittenSys             67111616                       # Total written bytes from the system interface side
system.mem_ctrls.bytes_inst_read::.cpu.inst          128                       # Number of instructions bytes read from this memory
system.mem_ctrls.bytes_inst_read::.switch_cpus.inst         2048                       # Number of instructions bytes read from this memory
system.mem_ctrls.bytes_inst_read::total          2176                       # Number of instructions bytes read from this memory
system.mem_ctrls.bytes_read::.cpu.inst            128                       # Number of bytes read from this memory
system.mem_ctrls.bytes_read::.cpu.data             64                       # Number of bytes read from this memory
system.mem_ctrls.bytes_read::.switch_cpus.inst         2048                       # Number of bytes read from this memory
system.mem_ctrls.bytes_read::.switch_cpus.data    189400320                       # Number of bytes read from this memory
system.mem_ctrls.bytes_read::total          189402560                       # Number of bytes read from this memory
system.mem_ctrls.bytes_written::.writebacks     67111616                       # Number of bytes written to this memory
system.mem_ctrls.bytes_written::total        67111616                       # Number of bytes written to this memory
system.mem_ctrls.masterReadAccesses::.switch_cpus.inst           32                       # Per-master read serviced memory accesses
system.mem_ctrls.masterReadAccesses::.switch_cpus.data      2959381                       # Per-master read serviced memory accesses
system.mem_ctrls.masterReadAvgLat::.switch_cpus.inst     52335.94                       # Per-master read average memory access latency
system.mem_ctrls.masterReadAvgLat::.switch_cpus.data     40382.22                       # Per-master read average memory access latency
system.mem_ctrls.masterReadBytes::.switch_cpus.inst         2048                       # Per-master bytes read from memory
system.mem_ctrls.masterReadBytes::.switch_cpus.data    189398144                       # Per-master bytes read from memory
system.mem_ctrls.masterReadRate::.switch_cpus.inst 27052.498345114931                       # Per-master bytes read from memory rate (Bytes/sec)
system.mem_ctrls.masterReadRate::.switch_cpus.data 2501803211.488203048706                       # Per-master bytes read from memory rate (Bytes/sec)
system.mem_ctrls.masterReadTotalLat::.switch_cpus.inst      1674750                       # Per-master read total memory access latency
system.mem_ctrls.masterReadTotalLat::.switch_cpus.data 119506361250                       # Per-master read total memory access latency
system.mem_ctrls.masterWriteAccesses::.writebacks      1048619                       # Per-master write serviced memory accesses
system.mem_ctrls.masterWriteAvgLat::.writebacks    939245.94                       # Per-master write average memory access latency
system.mem_ctrls.masterWriteBytes::.writebacks     67108864                       # Per-master bytes write to memory
system.mem_ctrls.masterWriteRate::.writebacks 886456265.772726058960                       # Per-master bytes write to memory rate (Bytes/sec)
system.mem_ctrls.masterWriteTotalLat::.writebacks 984911138250                       # Per-master write total memory access latency
system.mem_ctrls.mergedWrBursts                    12                       # Number of DRAM write bursts merged with an existing one
system.mem_ctrls.neitherReadNorWriteReqs            0                       # Number of requests that are neither read nor write
system.mem_ctrls.numRdRetry                         0                       # Number of times read queue was full causing retry
system.mem_ctrls.numReadWriteTurnArounds        65536                       # Number of turnarounds from READ to WRITE
system.mem_ctrls.numStayReadState             6562417                       # Number of times bus staying in READ state
system.mem_ctrls.numStayWriteState             984304                       # Number of times bus staying in WRITE state
system.mem_ctrls.numWrRetry                         0                       # Number of times write queue was full causing retry
system.mem_ctrls.numWriteReadTurnArounds        65536                       # Number of turnarounds from WRITE to READ
system.mem_ctrls.num_reads::.cpu.inst               2                       # Number of read requests responded to by this memory
system.mem_ctrls.num_reads::.cpu.data               1                       # Number of read requests responded to by this memory
system.mem_ctrls.num_reads::.switch_cpus.inst           32                       # Number of read requests responded to by this memory
system.mem_ctrls.num_reads::.switch_cpus.data      2959380                       # Number of read requests responded to by this memory
system.mem_ctrls.num_reads::total             2959415                       # Number of read requests responded to by this memory
system.mem_ctrls.num_writes::.writebacks      1048619                       # Number of write requests responded to by this memory
system.mem_ctrls.num_writes::total            1048619                       # Number of write requests responded to by this memory
system.mem_ctrls.pageHitRate                    93.31                       # Row buffer hit rate, read and write combined
system.mem_ctrls.peakBW                      12800.00                       # Theoretical peak bandwidth in MiByte/s
system.mem_ctrls.perBankRdBursts::0            184975                       # Per bank write bursts
system.mem_ctrls.perBankRdBursts::1            184937                       # Per bank write bursts
system.mem_ctrls.perBankRdBursts::2            185730                       # Per bank write bursts
system.mem_ctrls.perBankRdBursts::3            184932                       # Per bank write bursts
system.mem_ctrls.perBankRdBursts::4            184960                       # Per bank write bursts
system.mem_ctrls.perBankRdBursts::5            184208                       # Per bank write bursts
system.mem_ctrls.perBankRdBursts::6            184960                       # Per bank write bursts
system.mem_ctrls.perBankRdBursts::7            184960                       # Per bank write bursts
system.mem_ctrls.perBankRdBursts::8            184960                       # Per bank write bursts
system.mem_ctrls.perBankRdBursts::9            184960                       # Per bank write bursts
system.mem_ctrls.perBankRdBursts::10           184960                       # Per bank write bursts
system.mem_ctrls.perBankRdBursts::11           184960                       # Per bank write bursts
system.mem_ctrls.perBankRdBursts::12           184996                       # Per bank write bursts
system.mem_ctrls.perBankRdBursts::13           184960                       # Per bank write bursts
system.mem_ctrls.perBankRdBursts::14           184960                       # Per bank write bursts
system.mem_ctrls.perBankRdBursts::15           184960                       # Per bank write bursts
system.mem_ctrls.perBankWrBursts::0             65536                       # Per bank write bursts
system.mem_ctrls.perBankWrBursts::1             65513                       # Per bank write bursts
system.mem_ctrls.perBankWrBursts::2             65792                       # Per bank write bursts
system.mem_ctrls.perBankWrBursts::3             65536                       # Per bank write bursts
system.mem_ctrls.perBankWrBursts::4             65536                       # Per bank write bursts
system.mem_ctrls.perBankWrBursts::5             65285                       # Per bank write bursts
system.mem_ctrls.perBankWrBursts::6             65536                       # Per bank write bursts
system.mem_ctrls.perBankWrBursts::7             65536                       # Per bank write bursts
system.mem_ctrls.perBankWrBursts::8             65536                       # Per bank write bursts
system.mem_ctrls.perBankWrBursts::9             65536                       # Per bank write bursts
system.mem_ctrls.perBankWrBursts::10            65536                       # Per bank write bursts
system.mem_ctrls.perBankWrBursts::11            65536                       # Per bank write bursts
system.mem_ctrls.perBankWrBursts::12            65554                       # Per bank write bursts
system.mem_ctrls.perBankWrBursts::13            65536                       # Per bank write bursts
system.mem_ctrls.perBankWrBursts::14            65536                       # Per bank write bursts
system.mem_ctrls.perBankWrBursts::15            65536                       # Per bank write bursts
system.mem_ctrls.priorityMaxLatency      0.048331742500                       # per QoS priority maximum request to response latency (s)
system.mem_ctrls.priorityMinLatency      0.000000018750                       # per QoS priority minimum request to response latency (s)
system.mem_ctrls.pwrStateResidencyTicks::UNDEFINED 3618824203500                       # Cumulative time (in ticks) in various power states
system.mem_ctrls.rdPerTurnAround::samples        65536                       # Reads before turning the bus around for writes
system.mem_ctrls.rdPerTurnAround::mean      32.723190                       # Reads before turning the bus around for writes
system.mem_ctrls.rdPerTurnAround::gmean     16.002477                       # Reads before turning the bus around for writes
system.mem_ctrls.rdPerTurnAround::stdev   4281.093751                       # Reads before turning the bus around for writes
system.mem_ctrls.rdPerTurnAround::0-65535        65535    100.00%    100.00% # Reads before turning the bus around for writes
system.mem_ctrls.rdPerTurnAround::1.04858e+06-1.11411e+06            1      0.00%    100.00% # Reads before turning the bus around for writes
system.mem_ctrls.rdPerTurnAround::total         65536                       # Reads before turning the bus around for writes
system.mem_ctrls.rdQLenPdf::0                  739928                       # What read queue length does an incoming req see
system.mem_ctrls.rdQLenPdf::1                  744405                       # What read queue length does an incoming req see
system.mem_ctrls.rdQLenPdf::2                 1027490                       # What read queue length does an incoming req see
system.mem_ctrls.rdQLenPdf::3                  447549                       # What read queue length does an incoming req see
system.mem_ctrls.rdQLenPdf::4                       5                       # What read queue length does an incoming req see
system.mem_ctrls.rdQLenPdf::5                       1                       # What read queue length does an incoming req see
system.mem_ctrls.rdQLenPdf::6                       0                       # What read queue length does an incoming req see
system.mem_ctrls.rdQLenPdf::7                       0                       # What read queue length does an incoming req see
system.mem_ctrls.rdQLenPdf::8                       0                       # What read queue length does an incoming req see
system.mem_ctrls.rdQLenPdf::9                       0                       # What read queue length does an incoming req see
system.mem_ctrls.rdQLenPdf::10                      0                       # What read queue length does an incoming req see
system.mem_ctrls.rdQLenPdf::11                      0                       # What read queue length does an incoming req see
system.mem_ctrls.rdQLenPdf::12                      0                       # What read queue length does an incoming req see
system.mem_ctrls.rdQLenPdf::13                      0                       # What read queue length does an incoming req see
system.mem_ctrls.rdQLenPdf::14                      0                       # What read queue length does an incoming req see
system.mem_ctrls.rdQLenPdf::15                      0                       # What read queue length does an incoming req see
system.mem_ctrls.rdQLenPdf::16                      0                       # What read queue length does an incoming req see
system.mem_ctrls.rdQLenPdf::17                      0                       # What read queue length does an incoming req see
system.mem_ctrls.rdQLenPdf::18                      0                       # What read queue length does an incoming req see
system.mem_ctrls.rdQLenPdf::19                      0                       # What read queue length does an incoming req see
system.mem_ctrls.rdQLenPdf::20                      0                       # What read queue length does an incoming req see
system.mem_ctrls.rdQLenPdf::21                      0                       # What read queue length does an incoming req see
system.mem_ctrls.rdQLenPdf::22                      0                       # What read queue length does an incoming req see
system.mem_ctrls.rdQLenPdf::23                      0                       # What read queue length does an incoming req see
system.mem_ctrls.rdQLenPdf::24                      0                       # What read queue length does an incoming req see
system.mem_ctrls.rdQLenPdf::25                      0                       # What read queue length does an incoming req see
system.mem_ctrls.rdQLenPdf::26                      0                       # What read queue length does an incoming req see
[...]
system.switch_cpus.iq.fp_inst_queue_wakeup_accesses          295                       # Number of floating instruction queue wakeup accesses
system.switch_cpus.iq.fp_inst_queue_writes          990                       # Number of floating instruction queue writes
system.switch_cpus.iq.fu_busy_cnt              936667                       # FU busy when requested
system.switch_cpus.iq.fu_busy_rate           0.008796                       # FU busy rate (busy events/executed inst)
system.switch_cpus.iq.fu_full::No_OpClass            0      0.00%      0.00% # attempts to use FU when none available
system.switch_cpus.iq.fu_full::IntAlu          154308     16.47%     16.47% # attempts to use FU when none available
system.switch_cpus.iq.fu_full::IntMult              0      0.00%     16.47% # attempts to use FU when none available
system.switch_cpus.iq.fu_full::IntDiv               0      0.00%     16.47% # attempts to use FU when none available
system.switch_cpus.iq.fu_full::FloatAdd             0      0.00%     16.47% # attempts to use FU when none available
system.switch_cpus.iq.fu_full::FloatCmp             0      0.00%     16.47% # attempts to use FU when none available
system.switch_cpus.iq.fu_full::FloatCvt             0      0.00%     16.47% # attempts to use FU when none available
system.switch_cpus.iq.fu_full::FloatMult            0      0.00%     16.47% # attempts to use FU when none available
system.switch_cpus.iq.fu_full::FloatMultAcc            0      0.00%     16.47% # attempts to use FU when none available
system.switch_cpus.iq.fu_full::FloatDiv             0      0.00%     16.47% # attempts to use FU when none available
system.switch_cpus.iq.fu_full::FloatMisc            0      0.00%     16.47% # attempts to use FU when none available
system.switch_cpus.iq.fu_full::FloatSqrt            0      0.00%     16.47% # attempts to use FU when none available
system.switch_cpus.iq.fu_full::SimdAdd              0      0.00%     16.47% # attempts to use FU when none available
system.switch_cpus.iq.fu_full::SimdAddAcc            0      0.00%     16.47% # attempts to use FU when none available
system.switch_cpus.iq.fu_full::SimdAlu              0      0.00%     16.47% # attempts to use FU when none available
system.switch_cpus.iq.fu_full::SimdCmp              0      0.00%     16.47% # attempts to use FU when none available
system.switch_cpus.iq.fu_full::SimdCvt              0      0.00%     16.47% # attempts to use FU when none available
system.switch_cpus.iq.fu_full::SimdMisc             0      0.00%     16.47% # attempts to use FU when none available
system.switch_cpus.iq.fu_full::SimdMult             0      0.00%     16.47% # attempts to use FU when none available
system.switch_cpus.iq.fu_full::SimdMultAcc            0      0.00%     16.47% # attempts to use FU when none available
system.switch_cpus.iq.fu_full::SimdShift            0      0.00%     16.47% # attempts to use FU when none available
system.switch_cpus.iq.fu_full::SimdShiftAcc            0      0.00%     16.47% # attempts to use FU when none available
system.switch_cpus.iq.fu_full::SimdSqrt             0      0.00%     16.47% # attempts to use FU when none available
system.switch_cpus.iq.fu_full::SimdFloatAdd            0      0.00%     16.47% # attempts to use FU when none available
system.switch_cpus.iq.fu_full::SimdFloatAlu            0      0.00%     16.47% # attempts to use FU when none available
system.switch_cpus.iq.fu_full::SimdFloatCmp            0      0.00%     16.47% # attempts to use FU when none available
system.switch_cpus.iq.fu_full::SimdFloatCvt            0      0.00%     16.47% # attempts to use FU when none available
system.switch_cpus.iq.fu_full::SimdFloatDiv            0      0.00%     16.47% # attempts to use FU when none available
system.switch_cpus.iq.fu_full::SimdFloatMisc            0      0.00%     16.47% # attempts to use FU when none available
system.switch_cpus.iq.fu_full::SimdFloatMult            0      0.00%     16.47% # attempts to use FU when none available
system.switch_cpus.iq.fu_full::SimdFloatMultAcc            0      0.00%     16.47% # attempts to use FU when none available
system.switch_cpus.iq.fu_full::SimdFloatSqrt            0      0.00%     16.47% # attempts to use FU when none available
system.switch_cpus.iq.fu_full::SimdAes              0      0.00%     16.47% # attempts to use FU when none available
system.switch_cpus.iq.fu_full::SimdAesMix            0      0.00%     16.47% # attempts to use FU when none available
system.switch_cpus.iq.fu_full::SimdSha1Hash            0      0.00%     16.47% # attempts to use FU when none available
system.switch_cpus.iq.fu_full::SimdSha1Hash2            0      0.00%     16.47% # attempts to use FU when none available
system.switch_cpus.iq.fu_full::SimdSha256Hash            0      0.00%     16.47% # attempts to use FU when none available
system.switch_cpus.iq.fu_full::SimdSha256Hash2            0      0.00%     16.47% # attempts to use FU when none available
system.switch_cpus.iq.fu_full::SimdShaSigma2            0      0.00%     16.47% # attempts to use FU when none available
system.switch_cpus.iq.fu_full::SimdShaSigma3            0      0.00%     16.47% # attempts to use FU when none available
system.switch_cpus.iq.fu_full::MemRead         782220     83.51%     99.99% # attempts to use FU when none available
system.switch_cpus.iq.fu_full::MemWrite            67      0.01%     99.99% # attempts to use FU when none available
system.switch_cpus.iq.fu_full::FloatMemRead           27      0.00%    100.00% # attempts to use FU when none available
system.switch_cpus.iq.fu_full::FloatMemWrite           45      0.00%    100.00% # attempts to use FU when none available
system.switch_cpus.iq.fu_full::IprAccess            0      0.00%    100.00% # attempts to use FU when none available
system.switch_cpus.iq.fu_full::InstPrefetch            0      0.00%    100.00% # attempts to use FU when none available
system.switch_cpus.iq.int_alu_accesses      107420461                       # Number of integer alu accesses
system.switch_cpus.iq.int_inst_queue_reads    365310867                       # Number of integer instruction queue reads
system.switch_cpus.iq.int_inst_queue_wakeup_accesses    101264487                       # Number of integer instruction queue wakeup accesses
system.switch_cpus.iq.int_inst_queue_writes    105396890                       # Number of integer instruction queue writes
system.switch_cpus.iq.iqInstsAdded          102698985                       # Number of instructions added to the IQ (excludes non-spec)
system.switch_cpus.iq.iqInstsIssued         106484711                       # Number of instructions issued
system.switch_cpus.iq.iqSquashedInstsExamined      2698874                       # Number of squashed instructions iterated over during squash; mainly for profiling
system.switch_cpus.iq.iqSquashedInstsIssued           32                       # Number of squashed instructions issued
system.switch_cpus.iq.iqSquashedOperandsExamined      2232965                       # Number of squashed operands that are examined and possibly removed from graph
system.switch_cpus.iq.issued_per_cycle::samples    151405776                       # Number of insts issued each cycle
system.switch_cpus.iq.issued_per_cycle::mean     0.703307                       # Number of insts issued each cycle
system.switch_cpus.iq.issued_per_cycle::stdev     1.387884                       # Number of insts issued each cycle
system.switch_cpus.iq.issued_per_cycle::underflows            0      0.00%      0.00% # Number of insts issued each cycle
system.switch_cpus.iq.issued_per_cycle::0    112399892     74.24%     74.24% # Number of insts issued each cycle
system.switch_cpus.iq.issued_per_cycle::1      6608157      4.36%     78.60% # Number of insts issued each cycle
system.switch_cpus.iq.issued_per_cycle::2     14638100      9.67%     88.27% # Number of insts issued each cycle
system.switch_cpus.iq.issued_per_cycle::3      7851438      5.19%     93.46% # Number of insts issued each cycle
system.switch_cpus.iq.issued_per_cycle::4      4627512      3.06%     96.51% # Number of insts issued each cycle
system.switch_cpus.iq.issued_per_cycle::5      3739856      2.47%     98.98% # Number of insts issued each cycle
system.switch_cpus.iq.issued_per_cycle::6       953881      0.63%     99.61% # Number of insts issued each cycle
system.switch_cpus.iq.issued_per_cycle::7       582094      0.38%    100.00% # Number of insts issued each cycle
system.switch_cpus.iq.issued_per_cycle::8         4846      0.00%    100.00% # Number of insts issued each cycle
system.switch_cpus.iq.issued_per_cycle::overflows            0      0.00%    100.00% # Number of insts issued each cycle
system.switch_cpus.iq.issued_per_cycle::min_value            0                       # Number of insts issued each cycle
system.switch_cpus.iq.issued_per_cycle::max_value            8                       # Number of insts issued each cycle
system.switch_cpus.iq.issued_per_cycle::total    151405776                       # Number of insts issued each cycle
system.switch_cpus.iq.rate                   0.703290                       # Inst issue rate
system.switch_cpus.iq.vec_alu_accesses              0                       # Number of vector alu accesses
system.switch_cpus.iq.vec_inst_queue_reads            0                       # Number of vector instruction queue reads
system.switch_cpus.iq.vec_inst_queue_wakeup_accesses            0                       # Number of vector instruction queue wakeup accesses
system.switch_cpus.iq.vec_inst_queue_writes            0                       # Number of vector instruction queue writes
system.switch_cpus.itb.data_accesses                0                       # DTB accesses
system.switch_cpus.itb.data_acv                     0                       # DTB access violations
system.switch_cpus.itb.data_hits                    0                       # DTB hits
system.switch_cpus.itb.data_misses                  0                       # DTB misses
system.switch_cpus.itb.fetch_accesses        24395586                       # ITB accesses
system.switch_cpus.itb.fetch_acv                    0                       # ITB acv
system.switch_cpus.itb.fetch_hits            24395206                       # ITB hits
system.switch_cpus.itb.fetch_misses               380                       # ITB misses
system.switch_cpus.itb.pwrStateResidencyTicks::UNDEFINED 3618824203500                       # Cumulative time (in ticks) in various power states
system.switch_cpus.itb.read_accesses                0                       # DTB read accesses
system.switch_cpus.itb.read_acv                     0                       # DTB read access violations
system.switch_cpus.itb.read_hits                    0                       # DTB read hits
system.switch_cpus.itb.read_misses                  0                       # DTB read misses
system.switch_cpus.itb.write_accesses               0                       # DTB write accesses
system.switch_cpus.itb.write_acv                    0                       # DTB write access violations
system.switch_cpus.itb.write_hits                   0                       # DTB write hits
system.switch_cpus.itb.write_misses                 0                       # DTB write misses
system.switch_cpus.memDep0.conflictingLoads           44                       # Number of conflicting loads.
system.switch_cpus.memDep0.conflictingStores            0                       # Number of conflicting stores.
system.switch_cpus.memDep0.insertedLoads     12181603                       # Number of loads inserted to the mem dependence unit.
system.switch_cpus.memDep0.insertedStores      3261372                       # Number of stores inserted to the mem dependence unit.
system.switch_cpus.numCycles                151409286                       # number of cpu cycles simulated
system.switch_cpus.numWorkItemsCompleted            0                       # number of work items this cpu completed
system.switch_cpus.numWorkItemsStarted              0                       # number of work items this cpu started
system.switch_cpus.pwrStateResidencyTicks::OFF  75704653000                       # Cumulative time (in ticks) in various power states
system.switch_cpus.rename.BlockCycles       107551205                       # Number of cycles rename is blocking
system.switch_cpus.rename.CommittedMaps      75276597                       # Number of HB maps that are committed
system.switch_cpus.rename.IQFullEvents        8419391                       # Number of times rename has blocked due to IQ full
system.switch_cpus.rename.IdleCycles         13531429                       # Number of cycles rename is idle
system.switch_cpus.rename.LQFullEvents            418                       # Number of times rename has blocked due to LQ full
system.switch_cpus.rename.ROBFullEvents         24566                       # Number of times rename has blocked due to ROB full
system.switch_cpus.rename.RenameLookups     158969101                       # Number of register rename lookups that rename has made
system.switch_cpus.rename.RenamedInsts      102727916                       # Number of instructions processed by rename
system.switch_cpus.rename.RenamedOperands     77320949                       # Number of destination operands rename has renamed
system.switch_cpus.rename.RunCycles          20419004                       # Number of cycles rename is running
system.switch_cpus.rename.SQFullEvents          91630                       # Number of times rename has blocked due to SQ full
system.switch_cpus.rename.SquashCycles          23611                       # Number of cycles rename is squashing
system.switch_cpus.rename.UnblockCycles       9880526                       # Number of cycles rename is unblocking
system.switch_cpus.rename.UndoneMaps          2044268                       # Number of HB maps that are undone due to squashing
system.switch_cpus.rename.fp_rename_lookups          378                       # Number of floating rename lookups
system.switch_cpus.rename.int_rename_lookups    158968723                       # Number of integer rename lookups
system.switch_cpus.rename.serializeStallCycles            0                       # count of cycles rename stalled for serializing inst
system.switch_cpus.rename.serializingInsts            0                       # count of serializing insts renamed
system.switch_cpus.rename.skidInsts          19673361                       # count of insts added to the skid buffer
system.switch_cpus.rename.tempSerializingInsts            0                       # count of temporary serializing insts renamed
system.switch_cpus.rob.rob_reads            245747054                       # The number of ROB reads
system.switch_cpus.rob.rob_writes           204714512                       # The number of ROB writes
system.switch_cpus.timesIdled                      28                       # Number of times that the entire CPU went into an idle state and unscheduled itself
system.tol2bus.pkt_count_system.cpu.icache.mem_side::system.l2.cpu_side           68                       # Packet count per connected master and slave (bytes)
system.tol2bus.pkt_count_system.cpu.dcache.mem_side::system.l2.cpu_side      8877632                       # Packet count per connected master and slave (bytes)
system.tol2bus.pkt_count::total               8877700                       # Packet count per connected master and slave (bytes)
system.tol2bus.pkt_size_system.cpu.icache.mem_side::system.l2.cpu_side         2176                       # Cumulative packet size per connected master and slave (bytes)
system.tol2bus.pkt_size_system.cpu.dcache.mem_side::system.l2.cpu_side    256512000                       # Cumulative packet size per connected master and slave (bytes)
system.tol2bus.pkt_size::total              256514176                       # Cumulative packet size per connected master and slave (bytes)
system.tol2bus.pwrStateResidencyTicks::UNDEFINED 3618824203500                       # Cumulative time (in ticks) in various power states
system.tol2bus.reqLayer0.occupancy         4007760000                       # Layer occupancy (ticks)
system.tol2bus.reqLayer0.utilization              5.3                       # Layer utilization (%)
system.tol2bus.respLayer0.occupancy             48000                       # Layer occupancy (ticks)
system.tol2bus.respLayer0.utilization             0.0                       # Layer utilization (%)
system.tol2bus.respLayer1.occupancy        4439070000                       # Layer occupancy (ticks)
system.tol2bus.respLayer1.utilization             5.9                       # Layer utilization (%)
system.tol2bus.snoopTraffic                  67111616                       # Total snoop traffic (bytes)
system.tol2bus.snoop_fanout::samples          5886064                       # Request fanout histogram
system.tol2bus.snoop_fanout::mean            0.000006                       # Request fanout histogram
system.tol2bus.snoop_fanout::stdev           0.002403                       # Request fanout histogram
system.tol2bus.snoop_fanout::underflows             0      0.00%      0.00% # Request fanout histogram
system.tol2bus.snoop_fanout::0                5886030    100.00%    100.00% # Request fanout histogram
system.tol2bus.snoop_fanout::1                     34      0.00%    100.00% # Request fanout histogram
system.tol2bus.snoop_fanout::2                      0      0.00%    100.00% # Request fanout histogram
system.tol2bus.snoop_fanout::overflows              0      0.00%    100.00% # Request fanout histogram
system.tol2bus.snoop_fanout::min_value              0                       # Request fanout histogram
system.tol2bus.snoop_fanout::max_value              1                       # Request fanout histogram
system.tol2bus.snoop_fanout::total            5886064                       # Request fanout histogram
system.tol2bus.snoop_filter.hit_multi_requests            0                       # Number of requests hitting in the snoop filter with multiple (>1) holders of the requested data.
system.tol2bus.snoop_filter.hit_multi_snoops            0                       # Number of snoops hitting in the snoop filter with multiple (>1) holders of the requested data.
system.tol2bus.snoop_filter.hit_single_requests      2958868                       # Number of requests hitting in the snoop filter with a single holder of the requested data.
system.tol2bus.snoop_filter.hit_single_snoops           34                       # Number of snoops hitting in the snoop filter with a single holder of the requested data.
system.tol2bus.snoop_filter.tot_requests      5918285                       # Total number of requests made to the snoop filter.
system.tol2bus.snoop_filter.tot_snoops             34                       # Total number of snoops made to the snoop filter.
system.tol2bus.snoops                         2926647                       # Total snoops (count)
system.tol2bus.trans_dist::ReadResp           2959394                       # Transaction distribution
system.tol2bus.trans_dist::WritebackDirty      2097238                       # Transaction distribution
system.tol2bus.trans_dist::CleanEvict         3788277                       # Transaction distribution
system.tol2bus.trans_dist::ReadExReq               21                       # Transaction distribution
system.tol2bus.trans_dist::ReadExResp              21                       # Transaction distribution
system.tol2bus.trans_dist::ReadCleanReq            34                       # Transaction distribution
system.tol2bus.trans_dist::ReadSharedReq      2959362                       # Transaction distribution
system.voltage_domain.voltage                       1                       # Voltage in Volts

---------- End Simulation Statistics   ----------
