
******************************directory****************************
spec_dir: /home/cuihongwei/experiment/mcpat-gem5-master/spec2006/benchspec/CPU2006
run_dir:  /home/cuihongwei/experiment/mcpat-gem5-master/spec2006/benchspec/CPU2006/459.GemsFDTD/run/run_base_ref_amd64.0001
gem5_dir: /home/cuihongwei/experiment/experiment-gem5/raw-gem5
gem5_output_dir: /home/cuihongwei/experiment/experiment-gem5/raw-gem5/output/459.GemsFDTD/alpha-OLD-459.GemsFDTD-input1-190330-233448
benchmark_output:/home/cuihongwei/experiment/experiment-gem5/raw-gem5/output/459.GemsFDTD/alpha-OLD-459.GemsFDTD-input1-190330-233448
checkpoint_dir:/home/cuihongwei/experiment/experiment-gem5/pubs-gem5/output/alpha-459.GemsFDTD-checkpoint-input1

******************************benchmark****************************
target:     459.GemsFDTD
executable: GemsFDTD
args:       
input:      
output:     /home/cuihongwei/experiment/experiment-gem5/raw-gem5/output/459.GemsFDTD/alpha-OLD-459.GemsFDTD-input1-190330-233448/ref.log
errout:     /home/cuihongwei/experiment/experiment-gem5/raw-gem5/output/459.GemsFDTD/alpha-OLD-459.GemsFDTD-input1-190330-233448/ref.err

******************************gem5****************************
arch:       /home/cuihongwei/experiment/experiment-gem5/raw-gem5/build/ALPHA/gem5.opt
config:     /home/cuihongwei/experiment/experiment-gem5/raw-gem5/configs/example/se.py
args:       --num-cpus=1 --mem-size=8GB --caches --l1d_size=32kB --l1d_assoc=8 --l1i_size=32kB --l1i_assoc=8 --l2cache --l2_size=2MB --l2_assoc=16 --at-instruction --checkpoint-restore=5000000000 --maxinsts=100000000 --cpu-type=DerivO3CPU
debugFlag:  --debug-flags=ShowRunning

******************************simulation****************************
start time:(year-mon-day hour-minute-second)19-03-30 23-34-48
gem5 Simulator System.  http://gem5.org
gem5 is copyrighted software; use the --copyright option for details.

gem5 compiled Mar 30 2019 20:24:53
gem5 started Mar 30 2019 23:34:48
gem5 executing on mprc-R730, pid 15066
command line: /home/cuihongwei/experiment/experiment-gem5/raw-gem5/build/ALPHA/gem5.opt --outdir=/home/cuihongwei/experiment/experiment-gem5/raw-gem5/output/459.GemsFDTD/alpha-OLD-459.GemsFDTD-input1-190330-233448 --debug-flags=ShowRunning /home/cuihongwei/experiment/experiment-gem5/raw-gem5/configs/example/se.py --num-cpus=1 --mem-size=8GB --caches --l1d_size=32kB --l1d_assoc=8 --l1i_size=32kB --l1i_assoc=8 --l2cache --l2_size=2MB --l2_assoc=16 --at-instruction --checkpoint-restore=5000000000 --maxinsts=100000000 --cpu-type=DerivO3CPU --checkpoint-dir=/home/cuihongwei/experiment/experiment-gem5/pubs-gem5/output/alpha-459.GemsFDTD-checkpoint-input1 --cmd=/home/cuihongwei/experiment/mcpat-gem5-master/spec2006/benchspec/CPU2006/459.GemsFDTD/run/build_peak_alpha.0001/GemsFDTD --options= --output=/home/cuihongwei/experiment/experiment-gem5/raw-gem5/output/459.GemsFDTD/alpha-OLD-459.GemsFDTD-input1-190330-233448/ref.log --input= --errout=/home/cuihongwei/experiment/experiment-gem5/raw-gem5/output/459.GemsFDTD/alpha-OLD-459.GemsFDTD-input1-190330-233448/ref.err

Global frequency set at 1000000000000 ticks per second
Switch at curTick count:10000
Switched CPUS @ tick 5162262903000
switching cpus
**** REAL SIMULATION ****
5162262903500: system.switch_cpus: Raw Gem5 Running in Cycle:               0, Inst:               0
5162313185000: system.switch_cpus: Raw Gem5 Running in Cycle:          100000, Inst:           68090
5162363185000: system.switch_cpus: Raw Gem5 Running in Cycle:          200000, Inst:          140024
5162413185000: system.switch_cpus: Raw Gem5 Running in Cycle:          300000, Inst:          208732
5162463185000: system.switch_cpus: Raw Gem5 Running in Cycle:          400000, Inst:          278274
5162513185000: system.switch_cpus: Raw Gem5 Running in Cycle:          500000, Inst:          347214
5162563185000: system.switch_cpus: Raw Gem5 Running in Cycle:          600000, Inst:          417465
5162613185000: system.switch_cpus: Raw Gem5 Running in Cycle:          700000, Inst:          489920
5162663185000: system.switch_cpus: Raw Gem5 Running in Cycle:          800000, Inst:          560268
5162713185000: system.switch_cpus: Raw Gem5 Running in Cycle:          900000, Inst:          631642
5162763185000: system.switch_cpus: Raw Gem5 Running in Cycle:         1000000, Inst:          698889
5162813185000: system.switch_cpus: Raw Gem5 Running in Cycle:         1100000, Inst:          767442
5162863185000: system.switch_cpus: Raw Gem5 Running in Cycle:         1200000, Inst:          837095
5162913185000: system.switch_cpus: Raw Gem5 Running in Cycle:         1300000, Inst:          907946
5162963336500: system.switch_cpus: Raw Gem5 Running in Cycle:         1400000, Inst:          975635
5163013336500: system.switch_cpus: Raw Gem5 Running in Cycle:         1500000, Inst:         1044714
5163063336500: system.switch_cpus: Raw Gem5 Running in Cycle:         1600000, Inst:         1115359
5163113336500: system.switch_cpus: Raw Gem5 Running in Cycle:         1700000, Inst:         1185078
5163163336500: system.switch_cpus: Raw Gem5 Running in Cycle:         1800000, Inst:         1250815
5163213336500: system.switch_cpus: Raw Gem5 Running in Cycle:         1900000, Inst:         1317758
5163263336500: system.switch_cpus: Raw Gem5 Running in Cycle:         2000000, Inst:         1384506
5163313336500: system.switch_cpus: Raw Gem5 Running in Cycle:         2100000, Inst:         1453432
5163363336500: system.switch_cpus: Raw Gem5 Running in Cycle:         2200000, Inst:         1522983
5163413336500: system.switch_cpus: Raw Gem5 Running in Cycle:         2300000, Inst:         1592631
5163463336500: system.switch_cpus: Raw Gem5 Running in Cycle:         2400000, Inst:         1663108
5163513336500: system.switch_cpus: Raw Gem5 Running in Cycle:         2500000, Inst:         1729648
5163563336500: system.switch_cpus: Raw Gem5 Running in Cycle:         2600000, Inst:         1795819
5163613336500: system.switch_cpus: Raw Gem5 Running in Cycle:         2700000, Inst:         1861178
5163663336500: system.switch_cpus: Raw Gem5 Running in Cycle:         2800000, Inst:         1924996
5163713336500: system.switch_cpus: Raw Gem5 Running in Cycle:         2900000, Inst:         1991487
5163763336500: system.switch_cpus: Raw Gem5 Running in Cycle:         3000000, Inst:         2057828
5163813336500: system.switch_cpus: Raw Gem5 Running in Cycle:         3100000, Inst:         2121736
5163863336500: system.switch_cpus: Raw Gem5 Running in Cycle:         3200000, Inst:         2185226
5163913336500: system.switch_cpus: Raw Gem5 Running in Cycle:         3300000, Inst:         2248426
5163963336500: system.switch_cpus: Raw Gem5 Running in Cycle:         3400000, Inst:         2314403
5164013336500: system.switch_cpus: Raw Gem5 Running in Cycle:         3500000, Inst:         2380372
5164063336500: system.switch_cpus: Raw Gem5 Running in Cycle:         3600000, Inst:         2444006
5164113336500: system.switch_cpus: Raw Gem5 Running in Cycle:         3700000, Inst:         2510827
5164163336500: system.switch_cpus: Raw Gem5 Running in Cycle:         3800000, Inst:         2574728
5164213336500: system.switch_cpus: Raw Gem5 Running in Cycle:         3900000, Inst:         2639474
5164263336500: system.switch_cpus: Raw Gem5 Running in Cycle:         4000000, Inst:         2704932
5164313336500: system.switch_cpus: Raw Gem5 Running in Cycle:         4100000, Inst:         2771195
5164363336500: system.switch_cpus: Raw Gem5 Running in Cycle:         4200000, Inst:         2836044
5164413336500: system.switch_cpus: Raw Gem5 Running in Cycle:         4300000, Inst:         2903044
5164463336500: system.switch_cpus: Raw Gem5 Running in Cycle:         4400000, Inst:         2966729
5164513336500: system.switch_cpus: Raw Gem5 Running in Cycle:         4500000, Inst:         3030660
5164563336500: system.switch_cpus: Raw Gem5 Running in Cycle:         4600000, Inst:         3097857
5164613336500: system.switch_cpus: Raw Gem5 Running in Cycle:         4700000, Inst:         3163968
5164663336500: system.switch_cpus: Raw Gem5 Running in Cycle:         4800000, Inst:         3230083
5164713336500: system.switch_cpus: Raw Gem5 Running in Cycle:         4900000, Inst:         3296430
5164763336500: system.switch_cpus: Raw Gem5 Running in Cycle:         5000000, Inst:         3359674
5164813336500: system.switch_cpus: Raw Gem5 Running in Cycle:         5100000, Inst:         3422078
5164863336500: system.switch_cpus: Raw Gem5 Running in Cycle:         5200000, Inst:         3487685
5164913336500: system.switch_cpus: Raw Gem5 Running in Cycle:         5300000, Inst:         3552529
5164963336500: system.switch_cpus: Raw Gem5 Running in Cycle:         5400000, Inst:         3616486
5165013336500: system.switch_cpus: Raw Gem5 Running in Cycle:         5500000, Inst:         3680708
5165063336500: system.switch_cpus: Raw Gem5 Running in Cycle:         5600000, Inst:         3747162
5165113336500: system.switch_cpus: Raw Gem5 Running in Cycle:         5700000, Inst:         3812530
5165163336500: system.switch_cpus: Raw Gem5 Running in Cycle:         5800000, Inst:         3878600
5165213336500: system.switch_cpus: Raw Gem5 Running in Cycle:         5900000, Inst:         3946026
5165263336500: system.switch_cpus: Raw Gem5 Running in Cycle:         6000000, Inst:         4011060
5165313336500: system.switch_cpus: Raw Gem5 Running in Cycle:         6100000, Inst:         4076096
5165363336500: system.switch_cpus: Raw Gem5 Running in Cycle:         6200000, Inst:         4141220
5165413336500: system.switch_cpus: Raw Gem5 Running in Cycle:         6300000, Inst:         4206453
5165463336500: system.switch_cpus: Raw Gem5 Running in Cycle:         6400000, Inst:         4269700
5165513336500: system.switch_cpus: Raw Gem5 Running in Cycle:         6500000, Inst:         4333002
5165563336500: system.switch_cpus: Raw Gem5 Running in Cycle:         6600000, Inst:         4397510
5165613336500: system.switch_cpus: Raw Gem5 Running in Cycle:         6700000, Inst:         4461418
5165663336500: system.switch_cpus: Raw Gem5 Running in Cycle:         6800000, Inst:         4525613
5165713336500: system.switch_cpus: Raw Gem5 Running in Cycle:         6900000, Inst:         4591352
5165763336500: system.switch_cpus: Raw Gem5 Running in Cycle:         7000000, Inst:         4657091
5165813336500: system.switch_cpus: Raw Gem5 Running in Cycle:         7100000, Inst:         4723438
5165863336500: system.switch_cpus: Raw Gem5 Running in Cycle:         7200000, Inst:         4787348
5165913336500: system.switch_cpus: Raw Gem5 Running in Cycle:         7300000, Inst:         4852384
5165963336500: system.switch_cpus: Raw Gem5 Running in Cycle:         7400000, Inst:         4917880
5166013336500: system.switch_cpus: Raw Gem5 Running in Cycle:         7500000, Inst:         4983444
5166063336500: system.switch_cpus: Raw Gem5 Running in Cycle:         7600000, Inst:         5049138
5166113336500: system.switch_cpus: Raw Gem5 Running in Cycle:         7700000, Inst:         5111415
5166163336500: system.switch_cpus: Raw Gem5 Running in Cycle:         7800000, Inst:         5179510
5166213336500: system.switch_cpus: Raw Gem5 Running in Cycle:         7900000, Inst:         5244398
5166263336500: system.switch_cpus: Raw Gem5 Running in Cycle:         8000000, Inst:         5309583
5166313336500: system.switch_cpus: Raw Gem5 Running in Cycle:         8100000, Inst:         5375224
5166363336500: system.switch_cpus: Raw Gem5 Running in Cycle:         8200000, Inst:         5440258
5166413336500: system.switch_cpus: Raw Gem5 Running in Cycle:         8300000, Inst:         5504731
5166463336500: system.switch_cpus: Raw Gem5 Running in Cycle:         8400000, Inst:         5569722
5166513336500: system.switch_cpus: Raw Gem5 Running in Cycle:         8500000, Inst:         5634232
5166563336500: system.switch_cpus: Raw Gem5 Running in Cycle:         8600000, Inst:         5697395
5166613336500: system.switch_cpus: Raw Gem5 Running in Cycle:         8700000, Inst:         5759418
5166663336500: system.switch_cpus: Raw Gem5 Running in Cycle:         8800000, Inst:         5826568
5166713336500: system.switch_cpus: Raw Gem5 Running in Cycle:         8900000, Inst:         5892963
5166763336500: system.switch_cpus: Raw Gem5 Running in Cycle:         9000000, Inst:         5958377
5166813336500: system.switch_cpus: Raw Gem5 Running in Cycle:         9100000, Inst:         6024816
5166863336500: system.switch_cpus: Raw Gem5 Running in Cycle:         9200000, Inst:         6090562
5166913336500: system.switch_cpus: Raw Gem5 Running in Cycle:         9300000, Inst:         6154514
5166963336500: system.switch_cpus: Raw Gem5 Running in Cycle:         9400000, Inst:         6219837
5167013336500: system.switch_cpus: Raw Gem5 Running in Cycle:         9500000, Inst:         6283598
5167063336500: system.switch_cpus: Raw Gem5 Running in Cycle:         9600000, Inst:         6347036
5167113336500: system.switch_cpus: Raw Gem5 Running in Cycle:         9700000, Inst:         6410514
5167163336500: system.switch_cpus: Raw Gem5 Running in Cycle:         9800000, Inst:         6475554
5167213336500: system.switch_cpus: Raw Gem5 Running in Cycle:         9900000, Inst:         6538706
5167263336500: system.switch_cpus: Raw Gem5 Running in Cycle:        10000000, Inst:         6603510
5167313336500: system.switch_cpus: Raw Gem5 Running in Cycle:        10100000, Inst:         6667932
5167363336500: system.switch_cpus: Raw Gem5 Running in Cycle:        10200000, Inst:         6734274
5167413336500: system.switch_cpus: Raw Gem5 Running in Cycle:        10300000, Inst:         6799976
5167463336500: system.switch_cpus: Raw Gem5 Running in Cycle:        10400000, Inst:         6865850
5167513336500: system.switch_cpus: Raw Gem5 Running in Cycle:        10500000, Inst:         6931546
5167563336500: system.switch_cpus: Raw Gem5 Running in Cycle:        10600000, Inst:         6996350
5167613336500: system.switch_cpus: Raw Gem5 Running in Cycle:        10700000, Inst:         7061668
5167663336500: system.switch_cpus: Raw Gem5 Running in Cycle:        10800000, Inst:         7126654
5167713336500: system.switch_cpus: Raw Gem5 Running in Cycle:        10900000, Inst:         7188660
5167763336500: system.switch_cpus: Raw Gem5 Running in Cycle:        11000000, Inst:         7256655
5167813336500: system.switch_cpus: Raw Gem5 Running in Cycle:        11100000, Inst:         7323526
5167863336500: system.switch_cpus: Raw Gem5 Running in Cycle:        11200000, Inst:         7389471
5167913336500: system.switch_cpus: Raw Gem5 Running in Cycle:        11300000, Inst:         7454010
5167963336500: system.switch_cpus: Raw Gem5 Running in Cycle:        11400000, Inst:         7520693
5168013336500: system.switch_cpus: Raw Gem5 Running in Cycle:        11500000, Inst:         7584884
5168063336500: system.switch_cpus: Raw Gem5 Running in Cycle:        11600000, Inst:         7649588
5168113336500: system.switch_cpus: Raw Gem5 Running in Cycle:        11700000, Inst:         7714437
5168163336500: system.switch_cpus: Raw Gem5 Running in Cycle:        11800000, Inst:         7777777
5168213336500: system.switch_cpus: Raw Gem5 Running in Cycle:        11900000, Inst:         7843844
5168263336500: system.switch_cpus: Raw Gem5 Running in Cycle:        12000000, Inst:         7911233
5168313336500: system.switch_cpus: Raw Gem5 Running in Cycle:        12100000, Inst:         7977300
5168363336500: system.switch_cpus: Raw Gem5 Running in Cycle:        12200000, Inst:         8043794
5168413336500: system.switch_cpus: Raw Gem5 Running in Cycle:        12300000, Inst:         8110289
5168463336500: system.switch_cpus: Raw Gem5 Running in Cycle:        12400000, Inst:         8176400
5168513336500: system.switch_cpus: Raw Gem5 Running in Cycle:        12500000, Inst:         8243598
5168563336500: system.switch_cpus: Raw Gem5 Running in Cycle:        12600000, Inst:         8310012
5168613336500: system.switch_cpus: Raw Gem5 Running in Cycle:        12700000, Inst:         8375024
5168663336500: system.switch_cpus: Raw Gem5 Running in Cycle:        12800000, Inst:         8438560
5168713336500: system.switch_cpus: Raw Gem5 Running in Cycle:        12900000, Inst:         8503218
5168763336500: system.switch_cpus: Raw Gem5 Running in Cycle:        13000000, Inst:         8567874
5168813336500: system.switch_cpus: Raw Gem5 Running in Cycle:        13100000, Inst:         8633806
5168863336500: system.switch_cpus: Raw Gem5 Running in Cycle:        13200000, Inst:         8698001
5168913336500: system.switch_cpus: Raw Gem5 Running in Cycle:        13300000, Inst:         8764949
5168963336500: system.switch_cpus: Raw Gem5 Running in Cycle:        13400000, Inst:         8828677
5169013336500: system.switch_cpus: Raw Gem5 Running in Cycle:        13500000, Inst:         8895684
5169063336500: system.switch_cpus: Raw Gem5 Running in Cycle:        13600000, Inst:         8962787
5169113336500: system.switch_cpus: Raw Gem5 Running in Cycle:        13700000, Inst:         9029603
5169163336500: system.switch_cpus: Raw Gem5 Running in Cycle:        13800000, Inst:         9096048
5169213336500: system.switch_cpus: Raw Gem5 Running in Cycle:        13900000, Inst:         9162210
5169263336500: system.switch_cpus: Raw Gem5 Running in Cycle:        14000000, Inst:         9227202
5169313336500: system.switch_cpus: Raw Gem5 Running in Cycle:        14100000, Inst:         9291467
5169363336500: system.switch_cpus: Raw Gem5 Running in Cycle:        14200000, Inst:         9358209
5169413336500: system.switch_cpus: Raw Gem5 Running in Cycle:        14300000, Inst:         9425290
5169463336500: system.switch_cpus: Raw Gem5 Running in Cycle:        14400000, Inst:         9491647
5169513336500: system.switch_cpus: Raw Gem5 Running in Cycle:        14500000, Inst:         9560996
5169563336500: system.switch_cpus: Raw Gem5 Running in Cycle:        14600000, Inst:         9627633
5169613336500: system.switch_cpus: Raw Gem5 Running in Cycle:        14700000, Inst:         9693001
5169663336500: system.switch_cpus: Raw Gem5 Running in Cycle:        14800000, Inst:         9758071
5169713336500: system.switch_cpus: Raw Gem5 Running in Cycle:        14900000, Inst:         9824053
5169763336500: system.switch_cpus: Raw Gem5 Running in Cycle:        15000000, Inst:         9888247
5169813336500: system.switch_cpus: Raw Gem5 Running in Cycle:        15100000, Inst:         9955110
5169863336500: system.switch_cpus: Raw Gem5 Running in Cycle:        15200000, Inst:        10022349
5169913336500: system.switch_cpus: Raw Gem5 Running in Cycle:        15300000, Inst:        10089920
5169963336500: system.switch_cpus: Raw Gem5 Running in Cycle:        15400000, Inst:        10157968
5170013336500: system.switch_cpus: Raw Gem5 Running in Cycle:        15500000, Inst:        10224037
5170063336500: system.switch_cpus: Raw Gem5 Running in Cycle:        15600000, Inst:        10290528
5170113336500: system.switch_cpus: Raw Gem5 Running in Cycle:        15700000, Inst:        10357578
5170163336500: system.switch_cpus: Raw Gem5 Running in Cycle:        15800000, Inst:        10424927
5170213336500: system.switch_cpus: Raw Gem5 Running in Cycle:        15900000, Inst:        10490708
5170263336500: system.switch_cpus: Raw Gem5 Running in Cycle:        16000000, Inst:        10557285
5170313336500: system.switch_cpus: Raw Gem5 Running in Cycle:        16100000, Inst:        10620730
5170363336500: system.switch_cpus: Raw Gem5 Running in Cycle:        16200000, Inst:        10685764
5170413336500: system.switch_cpus: Raw Gem5 Running in Cycle:        16300000, Inst:        10751552
5170463336500: system.switch_cpus: Raw Gem5 Running in Cycle:        16400000, Inst:        10818838
5170513336500: system.switch_cpus: Raw Gem5 Running in Cycle:        16500000, Inst:        10885756
5170563336500: system.switch_cpus: Raw Gem5 Running in Cycle:        16600000, Inst:        10953794
5170613336500: system.switch_cpus: Raw Gem5 Running in Cycle:        16700000, Inst:        11020764
5170663336500: system.switch_cpus: Raw Gem5 Running in Cycle:        16800000, Inst:        11087112
5170713336500: system.switch_cpus: Raw Gem5 Running in Cycle:        16900000, Inst:        11154914
5170763336500: system.switch_cpus: Raw Gem5 Running in Cycle:        17000000, Inst:        11221978
5170813336500: system.switch_cpus: Raw Gem5 Running in Cycle:        17100000, Inst:        11289874
5170863336500: system.switch_cpus: Raw Gem5 Running in Cycle:        17200000, Inst:        11353332
5170913336500: system.switch_cpus: Raw Gem5 Running in Cycle:        17300000, Inst:        11422130
5170963336500: system.switch_cpus: Raw Gem5 Running in Cycle:        17400000, Inst:        11490220
5171013336500: system.switch_cpus: Raw Gem5 Running in Cycle:        17500000, Inst:        11559723
5171063336500: system.switch_cpus: Raw Gem5 Running in Cycle:        17600000, Inst:        11625714
5171113336500: system.switch_cpus: Raw Gem5 Running in Cycle:        17700000, Inst:        11692660
5171163336500: system.switch_cpus: Raw Gem5 Running in Cycle:        17800000, Inst:        11758954
5171213336500: system.switch_cpus: Raw Gem5 Running in Cycle:        17900000, Inst:        11826390
5171263336500: system.switch_cpus: Raw Gem5 Running in Cycle:        18000000, Inst:        11892784
5171313336500: system.switch_cpus: Raw Gem5 Running in Cycle:        18100000, Inst:        11960198
5171363336500: system.switch_cpus: Raw Gem5 Running in Cycle:        18200000, Inst:        12025488
5171413336500: system.switch_cpus: Raw Gem5 Running in Cycle:        18300000, Inst:        12091512
5171463336500: system.switch_cpus: Raw Gem5 Running in Cycle:        18400000, Inst:        12159033
5171513336500: system.switch_cpus: Raw Gem5 Running in Cycle:        18500000, Inst:        12229707
5171563336500: system.switch_cpus: Raw Gem5 Running in Cycle:        18600000, Inst:        12298928
5171613336500: system.switch_cpus: Raw Gem5 Running in Cycle:        18700000, Inst:        12366505
5171663336500: system.switch_cpus: Raw Gem5 Running in Cycle:        18800000, Inst:        12434118
5171713336500: system.switch_cpus: Raw Gem5 Running in Cycle:        18900000, Inst:        12497933
5171763336500: system.switch_cpus: Raw Gem5 Running in Cycle:        19000000, Inst:        12562423
5171813336500: system.switch_cpus: Raw Gem5 Running in Cycle:        19100000, Inst:        12630065
5171863336500: system.switch_cpus: Raw Gem5 Running in Cycle:        19200000, Inst:        12696654
5171913336500: system.switch_cpus: Raw Gem5 Running in Cycle:        19300000, Inst:        12763476
5171963336500: system.switch_cpus: Raw Gem5 Running in Cycle:        19400000, Inst:        12829966
5172013336500: system.switch_cpus: Raw Gem5 Running in Cycle:        19500000, Inst:        12896082
5172063336500: system.switch_cpus: Raw Gem5 Running in Cycle:        19600000, Inst:        12964005
5172113336500: system.switch_cpus: Raw Gem5 Running in Cycle:        19700000, Inst:        13032210
5172163336500: system.switch_cpus: Raw Gem5 Running in Cycle:        19800000, Inst:        13102132
5172213336500: system.switch_cpus: Raw Gem5 Running in Cycle:        19900000, Inst:        13170649
5172263336500: system.switch_cpus: Raw Gem5 Running in Cycle:        20000000, Inst:        13238837
5172313336500: system.switch_cpus: Raw Gem5 Running in Cycle:        20100000, Inst:        13307010
5172363336500: system.switch_cpus: Raw Gem5 Running in Cycle:        20200000, Inst:        13374258
5172413336500: system.switch_cpus: Raw Gem5 Running in Cycle:        20300000, Inst:        13436623
5172463336500: system.switch_cpus: Raw Gem5 Running in Cycle:        20400000, Inst:        13503510
5172513336500: system.switch_cpus: Raw Gem5 Running in Cycle:        20500000, Inst:        13571125
5172563336500: system.switch_cpus: Raw Gem5 Running in Cycle:        20600000, Inst:        13640388
5172613336500: system.switch_cpus: Raw Gem5 Running in Cycle:        20700000, Inst:        13709747
5172663336500: system.switch_cpus: Raw Gem5 Running in Cycle:        20800000, Inst:        13778118
5172713336500: system.switch_cpus: Raw Gem5 Running in Cycle:        20900000, Inst:        13846444
5172763336500: system.switch_cpus: Raw Gem5 Running in Cycle:        21000000, Inst:        13913772
5172813336500: system.switch_cpus: Raw Gem5 Running in Cycle:        21100000, Inst:        13979587
5172863336500: system.switch_cpus: Raw Gem5 Running in Cycle:        21200000, Inst:        14045258
5172913336500: system.switch_cpus: Raw Gem5 Running in Cycle:        21300000, Inst:        14111418
5172963336500: system.switch_cpus: Raw Gem5 Running in Cycle:        21400000, Inst:        14179460
5173013336500: system.switch_cpus: Raw Gem5 Running in Cycle:        21500000, Inst:        14248630
5173063336500: system.switch_cpus: Raw Gem5 Running in Cycle:        21600000, Inst:        14317424
5173113336500: system.switch_cpus: Raw Gem5 Running in Cycle:        21700000, Inst:        14386603
5173163336500: system.switch_cpus: Raw Gem5 Running in Cycle:        21800000, Inst:        14455346
5173213336500: system.switch_cpus: Raw Gem5 Running in Cycle:        21900000, Inst:        14522682
5173263336500: system.switch_cpus: Raw Gem5 Running in Cycle:        22000000, Inst:        14591336
5173313336500: system.switch_cpus: Raw Gem5 Running in Cycle:        22100000, Inst:        14657786
5173363336500: system.switch_cpus: Raw Gem5 Running in Cycle:        22200000, Inst:        14724649
5173413336500: system.switch_cpus: Raw Gem5 Running in Cycle:        22300000, Inst:        14789208
5173463336500: system.switch_cpus: Raw Gem5 Running in Cycle:        22400000, Inst:        14855107
5173513336500: system.switch_cpus: Raw Gem5 Running in Cycle:        22500000, Inst:        14920317
5173563336500: system.switch_cpus: Raw Gem5 Running in Cycle:        22600000, Inst:        14986627
5173613336500: system.switch_cpus: Raw Gem5 Running in Cycle:        22700000, Inst:        15055379
5173663336500: system.switch_cpus: Raw Gem5 Running in Cycle:        22800000, Inst:        15125155
5173713336500: system.switch_cpus: Raw Gem5 Running in Cycle:        22900000, Inst:        15194137
5173763336500: system.switch_cpus: Raw Gem5 Running in Cycle:        23000000, Inst:        15263024
5173813336500: system.switch_cpus: Raw Gem5 Running in Cycle:        23100000, Inst:        15330874
5173863336500: system.switch_cpus: Raw Gem5 Running in Cycle:        23200000, Inst:        15397834
5173913336500: system.switch_cpus: Raw Gem5 Running in Cycle:        23300000, Inst:        15466628
5173963336500: system.switch_cpus: Raw Gem5 Running in Cycle:        23400000, Inst:        15533426
5174013336500: system.switch_cpus: Raw Gem5 Running in Cycle:        23500000, Inst:        15602173
5174063336500: system.switch_cpus: Raw Gem5 Running in Cycle:        23600000, Inst:        15671812
5174113336500: system.switch_cpus: Raw Gem5 Running in Cycle:        23700000, Inst:        15743610
5174163336500: system.switch_cpus: Raw Gem5 Running in Cycle:        23800000, Inst:        15814806
5174213336500: system.switch_cpus: Raw Gem5 Running in Cycle:        23900000, Inst:        15885809
5174263336500: system.switch_cpus: Raw Gem5 Running in Cycle:        24000000, Inst:        15956760
5174313336500: system.switch_cpus: Raw Gem5 Running in Cycle:        24100000, Inst:        16025563
5174363336500: system.switch_cpus: Raw Gem5 Running in Cycle:        24200000, Inst:        16094984
5174413336500: system.switch_cpus: Raw Gem5 Running in Cycle:        24300000, Inst:        16160138
5174463336500: system.switch_cpus: Raw Gem5 Running in Cycle:        24400000, Inst:        16228796
5174513336500: system.switch_cpus: Raw Gem5 Running in Cycle:        24500000, Inst:        16299602
5174563336500: system.switch_cpus: Raw Gem5 Running in Cycle:        24600000, Inst:        16371554
5174613336500: system.switch_cpus: Raw Gem5 Running in Cycle:        24700000, Inst:        16445464
5174663336500: system.switch_cpus: Raw Gem5 Running in Cycle:        24800000, Inst:        16517262
5174713336500: system.switch_cpus: Raw Gem5 Running in Cycle:        24900000, Inst:        16588119
5174763336500: system.switch_cpus: Raw Gem5 Running in Cycle:        25000000, Inst:        16658610
5174813336500: system.switch_cpus: Raw Gem5 Running in Cycle:        25100000, Inst:        16725482
5174863336500: system.switch_cpus: Raw Gem5 Running in Cycle:        25200000, Inst:        16793810
5174913336500: system.switch_cpus: Raw Gem5 Running in Cycle:        25300000, Inst:        16862224
5174963336500: system.switch_cpus: Raw Gem5 Running in Cycle:        25400000, Inst:        16933012
5175013336500: system.switch_cpus: Raw Gem5 Running in Cycle:        25500000, Inst:        17003482
5175063336500: system.switch_cpus: Raw Gem5 Running in Cycle:        25600000, Inst:        17071469
5175113336500: system.switch_cpus: Raw Gem5 Running in Cycle:        25700000, Inst:        17143980
5175163336500: system.switch_cpus: Raw Gem5 Running in Cycle:        25800000, Inst:        17215281
5175213336500: system.switch_cpus: Raw Gem5 Running in Cycle:        25900000, Inst:        17285742
5175263336500: system.switch_cpus: Raw Gem5 Running in Cycle:        26000000, Inst:        17358010
5175313336500: system.switch_cpus: Raw Gem5 Running in Cycle:        26100000, Inst:        17430762
5175363336500: system.switch_cpus: Raw Gem5 Running in Cycle:        26200000, Inst:        17501060
5175413336500: system.switch_cpus: Raw Gem5 Running in Cycle:        26300000, Inst:        17571171
5175463336500: system.switch_cpus: Raw Gem5 Running in Cycle:        26400000, Inst:        17636985
5175513336500: system.switch_cpus: Raw Gem5 Running in Cycle:        26500000, Inst:        17710467
5175563336500: system.switch_cpus: Raw Gem5 Running in Cycle:        26600000, Inst:        17786403
5175613336500: system.switch_cpus: Raw Gem5 Running in Cycle:        26700000, Inst:        17862628
5175663336500: system.switch_cpus: Raw Gem5 Running in Cycle:        26800000, Inst:        17940066
5175713336500: system.switch_cpus: Raw Gem5 Running in Cycle:        26900000, Inst:        18012246
5175763336500: system.switch_cpus: Raw Gem5 Running in Cycle:        27000000, Inst:        18084044
5175813336500: system.switch_cpus: Raw Gem5 Running in Cycle:        27100000, Inst:        18154342
5175863336500: system.switch_cpus: Raw Gem5 Running in Cycle:        27200000, Inst:        18222812
5175913336500: system.switch_cpus: Raw Gem5 Running in Cycle:        27300000, Inst:        18293921
5175963336500: system.switch_cpus: Raw Gem5 Running in Cycle:        27400000, Inst:        18366859
5176013336500: system.switch_cpus: Raw Gem5 Running in Cycle:        27500000, Inst:        18439626
5176063336500: system.switch_cpus: Raw Gem5 Running in Cycle:        27600000, Inst:        18515725
5176113336500: system.switch_cpus: Raw Gem5 Running in Cycle:        27700000, Inst:        18592209
5176163336500: system.switch_cpus: Raw Gem5 Running in Cycle:        27800000, Inst:        18666864
5176213336500: system.switch_cpus: Raw Gem5 Running in Cycle:        27900000, Inst:        18737490
5176263336500: system.switch_cpus: Raw Gem5 Running in Cycle:        28000000, Inst:        18808921
5176313336500: system.switch_cpus: Raw Gem5 Running in Cycle:        28100000, Inst:        18880774
5176363336500: system.switch_cpus: Raw Gem5 Running in Cycle:        28200000, Inst:        18950748
5176413336500: system.switch_cpus: Raw Gem5 Running in Cycle:        28300000, Inst:        19022028
5176463336500: system.switch_cpus: Raw Gem5 Running in Cycle:        28400000, Inst:        19091853
5176513336500: system.switch_cpus: Raw Gem5 Running in Cycle:        28500000, Inst:        19164835
5176563336500: system.switch_cpus: Raw Gem5 Running in Cycle:        28600000, Inst:        19240483
5176613336500: system.switch_cpus: Raw Gem5 Running in Cycle:        28700000, Inst:        19314448
5176663336500: system.switch_cpus: Raw Gem5 Running in Cycle:        28800000, Inst:        19387661
5176713336500: system.switch_cpus: Raw Gem5 Running in Cycle:        28900000, Inst:        19461434
5176763336500: system.switch_cpus: Raw Gem5 Running in Cycle:        29000000, Inst:        19535728
5176813336500: system.switch_cpus: Raw Gem5 Running in Cycle:        29100000, Inst:        19608770
5176863336500: system.switch_cpus: Raw Gem5 Running in Cycle:        29200000, Inst:        19683114
5176913336500: system.switch_cpus: Raw Gem5 Running in Cycle:        29300000, Inst:        19756230
5176963336500: system.switch_cpus: Raw Gem5 Running in Cycle:        29400000, Inst:        19832309
5177013336500: system.switch_cpus: Raw Gem5 Running in Cycle:        29500000, Inst:        19908997
5177063336500: system.switch_cpus: Raw Gem5 Running in Cycle:        29600000, Inst:        19985685
5177113336500: system.switch_cpus: Raw Gem5 Running in Cycle:        29700000, Inst:        20060964
5177163336500: system.switch_cpus: Raw Gem5 Running in Cycle:        29800000, Inst:        20132208
5177213336500: system.switch_cpus: Raw Gem5 Running in Cycle:        29900000, Inst:        20204562
5177263336500: system.switch_cpus: Raw Gem5 Running in Cycle:        30000000, Inst:        20276835
5177313336500: system.switch_cpus: Raw Gem5 Running in Cycle:        30100000, Inst:        20349009
5177363336500: system.switch_cpus: Raw Gem5 Running in Cycle:        30200000, Inst:        20422222
5177413336500: system.switch_cpus: Raw Gem5 Running in Cycle:        30300000, Inst:        20497460
5177463336500: system.switch_cpus: Raw Gem5 Running in Cycle:        30400000, Inst:        20573720
5177513336500: system.switch_cpus: Raw Gem5 Running in Cycle:        30500000, Inst:        20650784
5177563336500: system.switch_cpus: Raw Gem5 Running in Cycle:        30600000, Inst:        20726722
5177613336500: system.switch_cpus: Raw Gem5 Running in Cycle:        30700000, Inst:        20798156
5177663336500: system.switch_cpus: Raw Gem5 Running in Cycle:        30800000, Inst:        20870286
5177713336500: system.switch_cpus: Raw Gem5 Running in Cycle:        30900000, Inst:        20940909
5177763336500: system.switch_cpus: Raw Gem5 Running in Cycle:        31000000, Inst:        21010784
5177813336500: system.switch_cpus: Raw Gem5 Running in Cycle:        31100000, Inst:        21083120
5177863336500: system.switch_cpus: Raw Gem5 Running in Cycle:        31200000, Inst:        21156406
5177913336500: system.switch_cpus: Raw Gem5 Running in Cycle:        31300000, Inst:        21230111
5177963336500: system.switch_cpus: Raw Gem5 Running in Cycle:        31400000, Inst:        21305794
5178013336500: system.switch_cpus: Raw Gem5 Running in Cycle:        31500000, Inst:        21382295
5178063336500: system.switch_cpus: Raw Gem5 Running in Cycle:        31600000, Inst:        21456390
5178113336500: system.switch_cpus: Raw Gem5 Running in Cycle:        31700000, Inst:        21530824
5178163336500: system.switch_cpus: Raw Gem5 Running in Cycle:        31800000, Inst:        21604880
5178213336500: system.switch_cpus: Raw Gem5 Running in Cycle:        31900000, Inst:        21678947
5178263336500: system.switch_cpus: Raw Gem5 Running in Cycle:        32000000, Inst:        21750759
5178313336500: system.switch_cpus: Raw Gem5 Running in Cycle:        32100000, Inst:        21823598
5178363336500: system.switch_cpus: Raw Gem5 Running in Cycle:        32200000, Inst:        21898782
5178413336500: system.switch_cpus: Raw Gem5 Running in Cycle:        32300000, Inst:        21975848
5178463336500: system.switch_cpus: Raw Gem5 Running in Cycle:        32400000, Inst:        22051408
5178513336500: system.switch_cpus: Raw Gem5 Running in Cycle:        32500000, Inst:        22127020
5178563336500: system.switch_cpus: Raw Gem5 Running in Cycle:        32600000, Inst:        22198795
5178613336500: system.switch_cpus: Raw Gem5 Running in Cycle:        32700000, Inst:        22271328
5178663336500: system.switch_cpus: Raw Gem5 Running in Cycle:        32800000, Inst:        22342661
5178713336500: system.switch_cpus: Raw Gem5 Running in Cycle:        32900000, Inst:        22413139
5178763336500: system.switch_cpus: Raw Gem5 Running in Cycle:        33000000, Inst:        22485604
5178813336500: system.switch_cpus: Raw Gem5 Running in Cycle:        33100000, Inst:        22559658
5178863336500: system.switch_cpus: Raw Gem5 Running in Cycle:        33200000, Inst:        22636346
5178913336500: system.switch_cpus: Raw Gem5 Running in Cycle:        33300000, Inst:        22713501
5178963336500: system.switch_cpus: Raw Gem5 Running in Cycle:        33400000, Inst:        22789443
5179013336500: system.switch_cpus: Raw Gem5 Running in Cycle:        33500000, Inst:        22863178
5179063336500: system.switch_cpus: Raw Gem5 Running in Cycle:        33600000, Inst:        22935582
5179113336500: system.switch_cpus: Raw Gem5 Running in Cycle:        33700000, Inst:        23007388
5179163336500: system.switch_cpus: Raw Gem5 Running in Cycle:        33800000, Inst:        23078808
5179213336500: system.switch_cpus: Raw Gem5 Running in Cycle:        33900000, Inst:        23149867
5179263336500: system.switch_cpus: Raw Gem5 Running in Cycle:        34000000, Inst:        23221664
5179313336500: system.switch_cpus: Raw Gem5 Running in Cycle:        34100000, Inst:        23294501
5179363336500: system.switch_cpus: Raw Gem5 Running in Cycle:        34200000, Inst:        23369627
5179413336500: system.switch_cpus: Raw Gem5 Running in Cycle:        34300000, Inst:        23443460
5179463336500: system.switch_cpus: Raw Gem5 Running in Cycle:        34400000, Inst:        23516833
5179513336500: system.switch_cpus: Raw Gem5 Running in Cycle:        34500000, Inst:        23591391
5179563336500: system.switch_cpus: Raw Gem5 Running in Cycle:        34600000, Inst:        23666002
5179613336500: system.switch_cpus: Raw Gem5 Running in Cycle:        34700000, Inst:        23740958
5179663336500: system.switch_cpus: Raw Gem5 Running in Cycle:        34800000, Inst:        23814963
5179713336500: system.switch_cpus: Raw Gem5 Running in Cycle:        34900000, Inst:        23880681
5179763336500: system.switch_cpus: Raw Gem5 Running in Cycle:        35000000, Inst:        23955861
5179813336500: system.switch_cpus: Raw Gem5 Running in Cycle:        35100000, Inst:        24032553
5179863336500: system.switch_cpus: Raw Gem5 Running in Cycle:        35200000, Inst:        24108020
5179913336500: system.switch_cpus: Raw Gem5 Running in Cycle:        35300000, Inst:        24184332
5179963336500: system.switch_cpus: Raw Gem5 Running in Cycle:        35400000, Inst:        24257357
5180013336500: system.switch_cpus: Raw Gem5 Running in Cycle:        35500000, Inst:        24329062
5180063336500: system.switch_cpus: Raw Gem5 Running in Cycle:        35600000, Inst:        24402420
5180113336500: system.switch_cpus: Raw Gem5 Running in Cycle:        35700000, Inst:        24473884
5180163336500: system.switch_cpus: Raw Gem5 Running in Cycle:        35800000, Inst:        24545594
5180213336500: system.switch_cpus: Raw Gem5 Running in Cycle:        35900000, Inst:        24618106
5180263336500: system.switch_cpus: Raw Gem5 Running in Cycle:        36000000, Inst:        24693265
5180313336500: system.switch_cpus: Raw Gem5 Running in Cycle:        36100000, Inst:        24768898
5180363336500: system.switch_cpus: Raw Gem5 Running in Cycle:        36200000, Inst:        24844925
5180413336500: system.switch_cpus: Raw Gem5 Running in Cycle:        36300000, Inst:        24917855
5180463336500: system.switch_cpus: Raw Gem5 Running in Cycle:        36400000, Inst:        24989657
5180513336500: system.switch_cpus: Raw Gem5 Running in Cycle:        36500000, Inst:        25063242
5180563336500: system.switch_cpus: Raw Gem5 Running in Cycle:        36600000, Inst:        25136548
5180613336500: system.switch_cpus: Raw Gem5 Running in Cycle:        36700000, Inst:        25209947
5180663336500: system.switch_cpus: Raw Gem5 Running in Cycle:        36800000, Inst:        25282034
5180713336500: system.switch_cpus: Raw Gem5 Running in Cycle:        36900000, Inst:        25354208
5180763336500: system.switch_cpus: Raw Gem5 Running in Cycle:        37000000, Inst:        25429016
5180813336500: system.switch_cpus: Raw Gem5 Running in Cycle:        37100000, Inst:        25504620
5180863336500: system.switch_cpus: Raw Gem5 Running in Cycle:        37200000, Inst:        25577892
5180913336500: system.switch_cpus: Raw Gem5 Running in Cycle:        37300000, Inst:        25651192
5180963336500: system.switch_cpus: Raw Gem5 Running in Cycle:        37400000, Inst:        25725244
5181013336500: system.switch_cpus: Raw Gem5 Running in Cycle:        37500000, Inst:        25798837
5181063336500: system.switch_cpus: Raw Gem5 Running in Cycle:        37600000, Inst:        25872236
5181113336500: system.switch_cpus: Raw Gem5 Running in Cycle:        37700000, Inst:        25945471
5181163336500: system.switch_cpus: Raw Gem5 Running in Cycle:        37800000, Inst:        26019858
5181213336500: system.switch_cpus: Raw Gem5 Running in Cycle:        37900000, Inst:        26093208
5181263336500: system.switch_cpus: Raw Gem5 Running in Cycle:        38000000, Inst:        26167642
5181313336500: system.switch_cpus: Raw Gem5 Running in Cycle:        38100000, Inst:        26242450
5181363336500: system.switch_cpus: Raw Gem5 Running in Cycle:        38200000, Inst:        26315380
5181413336500: system.switch_cpus: Raw Gem5 Running in Cycle:        38300000, Inst:        26388127
5181463336500: system.switch_cpus: Raw Gem5 Running in Cycle:        38400000, Inst:        26462457
5181513336500: system.switch_cpus: Raw Gem5 Running in Cycle:        38500000, Inst:        26535818
5181563336500: system.switch_cpus: Raw Gem5 Running in Cycle:        38600000, Inst:        26609494
5181613336500: system.switch_cpus: Raw Gem5 Running in Cycle:        38700000, Inst:        26682749
5181663336500: system.switch_cpus: Raw Gem5 Running in Cycle:        38800000, Inst:        26756710
5181713336500: system.switch_cpus: Raw Gem5 Running in Cycle:        38900000, Inst:        26830820
5181763336500: system.switch_cpus: Raw Gem5 Running in Cycle:        39000000, Inst:        26905150
5181813336500: system.switch_cpus: Raw Gem5 Running in Cycle:        39100000, Inst:        26978973
5181863336500: system.switch_cpus: Raw Gem5 Running in Cycle:        39200000, Inst:        27052522
5181913336500: system.switch_cpus: Raw Gem5 Running in Cycle:        39300000, Inst:        27124744
5181963336500: system.switch_cpus: Raw Gem5 Running in Cycle:        39400000, Inst:        27196564
5182013336500: system.switch_cpus: Raw Gem5 Running in Cycle:        39500000, Inst:        27269186
5182063336500: system.switch_cpus: Raw Gem5 Running in Cycle:        39600000, Inst:        27340898
5182113336500: system.switch_cpus: Raw Gem5 Running in Cycle:        39700000, Inst:        27414673
5182163336500: system.switch_cpus: Raw Gem5 Running in Cycle:        39800000, Inst:        27489388
5182213336500: system.switch_cpus: Raw Gem5 Running in Cycle:        39900000, Inst:        27564342
5182263336500: system.switch_cpus: Raw Gem5 Running in Cycle:        40000000, Inst:        27639099
5182313336500: system.switch_cpus: Raw Gem5 Running in Cycle:        40100000, Inst:        27715037
5182363336500: system.switch_cpus: Raw Gem5 Running in Cycle:        40200000, Inst:        27789374
5182413336500: system.switch_cpus: Raw Gem5 Running in Cycle:        40300000, Inst:        27863218
5182463336500: system.switch_cpus: Raw Gem5 Running in Cycle:        40400000, Inst:        27936412
5182513336500: system.switch_cpus: Raw Gem5 Running in Cycle:        40500000, Inst:        28005836
5182563336500: system.switch_cpus: Raw Gem5 Running in Cycle:        40600000, Inst:        28079701
5182613336500: system.switch_cpus: Raw Gem5 Running in Cycle:        40700000, Inst:        28154380
5182663336500: system.switch_cpus: Raw Gem5 Running in Cycle:        40800000, Inst:        28226932
5182713336500: system.switch_cpus: Raw Gem5 Running in Cycle:        40900000, Inst:        28299255
5182763336500: system.switch_cpus: Raw Gem5 Running in Cycle:        41000000, Inst:        28372748
5182813336500: system.switch_cpus: Raw Gem5 Running in Cycle:        41100000, Inst:        28446048
5182863336500: system.switch_cpus: Raw Gem5 Running in Cycle:        41200000, Inst:        28519730
5182913336500: system.switch_cpus: Raw Gem5 Running in Cycle:        41300000, Inst:        28592941
5182963336500: system.switch_cpus: Raw Gem5 Running in Cycle:        41400000, Inst:        28665562
5183013336500: system.switch_cpus: Raw Gem5 Running in Cycle:        41500000, Inst:        28738514
5183063336500: system.switch_cpus: Raw Gem5 Running in Cycle:        41600000, Inst:        28813891
5183113336500: system.switch_cpus: Raw Gem5 Running in Cycle:        41700000, Inst:        28888977
5183163336500: system.switch_cpus: Raw Gem5 Running in Cycle:        41800000, Inst:        28963692
5183213336500: system.switch_cpus: Raw Gem5 Running in Cycle:        41900000, Inst:        29037146
5183263336500: system.switch_cpus: Raw Gem5 Running in Cycle:        42000000, Inst:        29110682
5183313336500: system.switch_cpus: Raw Gem5 Running in Cycle:        42100000, Inst:        29183608
5183363336500: system.switch_cpus: Raw Gem5 Running in Cycle:        42200000, Inst:        29255460
5183413336500: system.switch_cpus: Raw Gem5 Running in Cycle:        42300000, Inst:        29329094
5183463336500: system.switch_cpus: Raw Gem5 Running in Cycle:        42400000, Inst:        29401602
5183513336500: system.switch_cpus: Raw Gem5 Running in Cycle:        42500000, Inst:        29474261
5183563336500: system.switch_cpus: Raw Gem5 Running in Cycle:        42600000, Inst:        29548917
5183613336500: system.switch_cpus: Raw Gem5 Running in Cycle:        42700000, Inst:        29622025
5183663336500: system.switch_cpus: Raw Gem5 Running in Cycle:        42800000, Inst:        29694728
5183713336500: system.switch_cpus: Raw Gem5 Running in Cycle:        42900000, Inst:        29768367
5183763336500: system.switch_cpus: Raw Gem5 Running in Cycle:        43000000, Inst:        29843175
5183813336500: system.switch_cpus: Raw Gem5 Running in Cycle:        43100000, Inst:        29916806
5183863336500: system.switch_cpus: Raw Gem5 Running in Cycle:        43200000, Inst:        29991468
5183913336500: system.switch_cpus: Raw Gem5 Running in Cycle:        43300000, Inst:        30066749
5183963336500: system.switch_cpus: Raw Gem5 Running in Cycle:        43400000, Inst:        30133904
5184013336500: system.switch_cpus: Raw Gem5 Running in Cycle:        43500000, Inst:        30207751
5184063336500: system.switch_cpus: Raw Gem5 Running in Cycle:        43600000, Inst:        30282459
5184113336500: system.switch_cpus: Raw Gem5 Running in Cycle:        43700000, Inst:        30355758
5184163336500: system.switch_cpus: Raw Gem5 Running in Cycle:        43800000, Inst:        30428598
5184213336500: system.switch_cpus: Raw Gem5 Running in Cycle:        43900000, Inst:        30502280
5184263336500: system.switch_cpus: Raw Gem5 Running in Cycle:        44000000, Inst:        30575408
5184313336500: system.switch_cpus: Raw Gem5 Running in Cycle:        44100000, Inst:        30649642
5184363336500: system.switch_cpus: Raw Gem5 Running in Cycle:        44200000, Inst:        30723331
5184413336500: system.switch_cpus: Raw Gem5 Running in Cycle:        44300000, Inst:        30797099
5184463336500: system.switch_cpus: Raw Gem5 Running in Cycle:        44400000, Inst:        30870405
5184513336500: system.switch_cpus: Raw Gem5 Running in Cycle:        44500000, Inst:        30942952
5184563336500: system.switch_cpus: Raw Gem5 Running in Cycle:        44600000, Inst:        31016032
5184613336500: system.switch_cpus: Raw Gem5 Running in Cycle:        44700000, Inst:        31088813
5184663336500: system.switch_cpus: Raw Gem5 Running in Cycle:        44800000, Inst:        31163530
5184713336500: system.switch_cpus: Raw Gem5 Running in Cycle:        44900000, Inst:        31238317
5184763336500: system.switch_cpus: Raw Gem5 Running in Cycle:        45000000, Inst:        31312396
5184813336500: system.switch_cpus: Raw Gem5 Running in Cycle:        45100000, Inst:        31387204
5184863336500: system.switch_cpus: Raw Gem5 Running in Cycle:        45200000, Inst:        31461638
5184913336500: system.switch_cpus: Raw Gem5 Running in Cycle:        45300000, Inst:        31534244
5184963336500: system.switch_cpus: Raw Gem5 Running in Cycle:        45400000, Inst:        31608624
5185013336500: system.switch_cpus: Raw Gem5 Running in Cycle:        45500000, Inst:        31683058
5185063336500: system.switch_cpus: Raw Gem5 Running in Cycle:        45600000, Inst:        31757114
5185113336500: system.switch_cpus: Raw Gem5 Running in Cycle:        45700000, Inst:        31831130
5185163336500: system.switch_cpus: Raw Gem5 Running in Cycle:        45800000, Inst:        31904058
5185213336500: system.switch_cpus: Raw Gem5 Running in Cycle:        45900000, Inst:        31978069
5185263336500: system.switch_cpus: Raw Gem5 Running in Cycle:        46000000, Inst:        32051462
5185313336500: system.switch_cpus: Raw Gem5 Running in Cycle:        46100000, Inst:        32124857
5185363336500: system.switch_cpus: Raw Gem5 Running in Cycle:        46200000, Inst:        32198714
5185413336500: system.switch_cpus: Raw Gem5 Running in Cycle:        46300000, Inst:        32271688
5185463336500: system.switch_cpus: Raw Gem5 Running in Cycle:        46400000, Inst:        32343021
5185513336500: system.switch_cpus: Raw Gem5 Running in Cycle:        46500000, Inst:        32415528
5185563336500: system.switch_cpus: Raw Gem5 Running in Cycle:        46600000, Inst:        32488596
5185613336500: system.switch_cpus: Raw Gem5 Running in Cycle:        46700000, Inst:        32562745
5185663336500: system.switch_cpus: Raw Gem5 Running in Cycle:        46800000, Inst:        32638305
5185713336500: system.switch_cpus: Raw Gem5 Running in Cycle:        46900000, Inst:        32712268
5185763336500: system.switch_cpus: Raw Gem5 Running in Cycle:        47000000, Inst:        32787171
5185813336500: system.switch_cpus: Raw Gem5 Running in Cycle:        47100000, Inst:        32861510
5185863336500: system.switch_cpus: Raw Gem5 Running in Cycle:        47200000, Inst:        32935661
5185913336500: system.switch_cpus: Raw Gem5 Running in Cycle:        47300000, Inst:        33008548
5185963336500: system.switch_cpus: Raw Gem5 Running in Cycle:        47400000, Inst:        33080307
5186013336500: system.switch_cpus: Raw Gem5 Running in Cycle:        47500000, Inst:        33152860
5186063336500: system.switch_cpus: Raw Gem5 Running in Cycle:        47600000, Inst:        33227618
5186113336500: system.switch_cpus: Raw Gem5 Running in Cycle:        47700000, Inst:        33301678
5186163336500: system.switch_cpus: Raw Gem5 Running in Cycle:        47800000, Inst:        33373985
5186213336500: system.switch_cpus: Raw Gem5 Running in Cycle:        47900000, Inst:        33448944
5186263336500: system.switch_cpus: Raw Gem5 Running in Cycle:        48000000, Inst:        33522624
5186313336500: system.switch_cpus: Raw Gem5 Running in Cycle:        48100000, Inst:        33597570
5186363336500: system.switch_cpus: Raw Gem5 Running in Cycle:        48200000, Inst:        33672849
5186413336500: system.switch_cpus: Raw Gem5 Running in Cycle:        48300000, Inst:        33746725
5186463336500: system.switch_cpus: Raw Gem5 Running in Cycle:        48400000, Inst:        33821715
5186513336500: system.switch_cpus: Raw Gem5 Running in Cycle:        48500000, Inst:        33895302
5186563336500: system.switch_cpus: Raw Gem5 Running in Cycle:        48600000, Inst:        33968329
5186613336500: system.switch_cpus: Raw Gem5 Running in Cycle:        48700000, Inst:        34041588
5186663336500: system.switch_cpus: Raw Gem5 Running in Cycle:        48800000, Inst:        34114140
5186713336500: system.switch_cpus: Raw Gem5 Running in Cycle:        48900000, Inst:        34188146
5186763336500: system.switch_cpus: Raw Gem5 Running in Cycle:        49000000, Inst:        34256870
5186813336500: system.switch_cpus: Raw Gem5 Running in Cycle:        49100000, Inst:        34329852
5186863336500: system.switch_cpus: Raw Gem5 Running in Cycle:        49200000, Inst:        34402671
5186913336500: system.switch_cpus: Raw Gem5 Running in Cycle:        49300000, Inst:        34473787
5186963336500: system.switch_cpus: Raw Gem5 Running in Cycle:        49400000, Inst:        34546290
5187013336500: system.switch_cpus: Raw Gem5 Running in Cycle:        49500000, Inst:        34619970
5187063336500: system.switch_cpus: Raw Gem5 Running in Cycle:        49600000, Inst:        34694357
5187113336500: system.switch_cpus: Raw Gem5 Running in Cycle:        49700000, Inst:        34768005
5187163336500: system.switch_cpus: Raw Gem5 Running in Cycle:        49800000, Inst:        34841672
5187213336500: system.switch_cpus: Raw Gem5 Running in Cycle:        49900000, Inst:        34916242
5187263336500: system.switch_cpus: Raw Gem5 Running in Cycle:        50000000, Inst:        34990871
5187313336500: system.switch_cpus: Raw Gem5 Running in Cycle:        50100000, Inst:        35065258
5187363336500: system.switch_cpus: Raw Gem5 Running in Cycle:        50200000, Inst:        35137810
5187413336500: system.switch_cpus: Raw Gem5 Running in Cycle:        50300000, Inst:        35210052
5187463336500: system.switch_cpus: Raw Gem5 Running in Cycle:        50400000, Inst:        35282444
5187513336500: system.switch_cpus: Raw Gem5 Running in Cycle:        50500000, Inst:        35357252
5187563336500: system.switch_cpus: Raw Gem5 Running in Cycle:        50600000, Inst:        35431623
5187613336500: system.switch_cpus: Raw Gem5 Running in Cycle:        50700000, Inst:        35505314
5187663336500: system.switch_cpus: Raw Gem5 Running in Cycle:        50800000, Inst:        35579752
5187713336500: system.switch_cpus: Raw Gem5 Running in Cycle:        50900000, Inst:        35654138
5187763336500: system.switch_cpus: Raw Gem5 Running in Cycle:        51000000, Inst:        35728153
5187813336500: system.switch_cpus: Raw Gem5 Running in Cycle:        51100000, Inst:        35800701
5187863336500: system.switch_cpus: Raw Gem5 Running in Cycle:        51200000, Inst:        35874476
5187913336500: system.switch_cpus: Raw Gem5 Running in Cycle:        51300000, Inst:        35947030
5187963336500: system.switch_cpus: Raw Gem5 Running in Cycle:        51400000, Inst:        36020899
5188013336500: system.switch_cpus: Raw Gem5 Running in Cycle:        51500000, Inst:        36095290
5188063336500: system.switch_cpus: Raw Gem5 Running in Cycle:        51600000, Inst:        36170474
5188113336500: system.switch_cpus: Raw Gem5 Running in Cycle:        51700000, Inst:        36245134
5188163336500: system.switch_cpus: Raw Gem5 Running in Cycle:        51800000, Inst:        36318161
5188213336500: system.switch_cpus: Raw Gem5 Running in Cycle:        51900000, Inst:        36387914
5188263336500: system.switch_cpus: Raw Gem5 Running in Cycle:        52000000, Inst:        36462067
5188313336500: system.switch_cpus: Raw Gem5 Running in Cycle:        52100000, Inst:        36534298
5188363336500: system.switch_cpus: Raw Gem5 Running in Cycle:        52200000, Inst:        36607830
5188413336500: system.switch_cpus: Raw Gem5 Running in Cycle:        52300000, Inst:        36681188
5188463336500: system.switch_cpus: Raw Gem5 Running in Cycle:        52400000, Inst:        36755944
5188513336500: system.switch_cpus: Raw Gem5 Running in Cycle:        52500000, Inst:        36830427
5188563336500: system.switch_cpus: Raw Gem5 Running in Cycle:        52600000, Inst:        36903613
5188613336500: system.switch_cpus: Raw Gem5 Running in Cycle:        52700000, Inst:        36978872
5188663336500: system.switch_cpus: Raw Gem5 Running in Cycle:        52800000, Inst:        37052954
5188713336500: system.switch_cpus: Raw Gem5 Running in Cycle:        52900000, Inst:        37124354
5188763336500: system.switch_cpus: Raw Gem5 Running in Cycle:        53000000, Inst:        37196365
5188813336500: system.switch_cpus: Raw Gem5 Running in Cycle:        53100000, Inst:        37266828
5188863336500: system.switch_cpus: Raw Gem5 Running in Cycle:        53200000, Inst:        37341729
5188913336500: system.switch_cpus: Raw Gem5 Running in Cycle:        53300000, Inst:        37417015
5188963336500: system.switch_cpus: Raw Gem5 Running in Cycle:        53400000, Inst:        37492526
5189013336500: system.switch_cpus: Raw Gem5 Running in Cycle:        53500000, Inst:        37567041
5189063336500: system.switch_cpus: Raw Gem5 Running in Cycle:        53600000, Inst:        37641998
5189113336500: system.switch_cpus: Raw Gem5 Running in Cycle:        53700000, Inst:        37716905
5189163336500: system.switch_cpus: Raw Gem5 Running in Cycle:        53800000, Inst:        37791616
5189213336500: system.switch_cpus: Raw Gem5 Running in Cycle:        53900000, Inst:        37864225
5189263336500: system.switch_cpus: Raw Gem5 Running in Cycle:        54000000, Inst:        37937850
5189313336500: system.switch_cpus: Raw Gem5 Running in Cycle:        54100000, Inst:        38012282
5189363336500: system.switch_cpus: Raw Gem5 Running in Cycle:        54200000, Inst:        38085546
5189413336500: system.switch_cpus: Raw Gem5 Running in Cycle:        54300000, Inst:        38158894
5189463336500: system.switch_cpus: Raw Gem5 Running in Cycle:        54400000, Inst:        38232293
5189513336500: system.switch_cpus: Raw Gem5 Running in Cycle:        54500000, Inst:        38305368
5189563336500: system.switch_cpus: Raw Gem5 Running in Cycle:        54600000, Inst:        38379424
5189613336500: system.switch_cpus: Raw Gem5 Running in Cycle:        54700000, Inst:        38451296
5189663336500: system.switch_cpus: Raw Gem5 Running in Cycle:        54800000, Inst:        38520749
5189713336500: system.switch_cpus: Raw Gem5 Running in Cycle:        54900000, Inst:        38590850
5189763336500: system.switch_cpus: Raw Gem5 Running in Cycle:        55000000, Inst:        38661905
5189813336500: system.switch_cpus: Raw Gem5 Running in Cycle:        55100000, Inst:        38735209
5189863336500: system.switch_cpus: Raw Gem5 Running in Cycle:        55200000, Inst:        38810771
5189913336500: system.switch_cpus: Raw Gem5 Running in Cycle:        55300000, Inst:        38885431
5189963336500: system.switch_cpus: Raw Gem5 Running in Cycle:        55400000, Inst:        38957005
5190013336500: system.switch_cpus: Raw Gem5 Running in Cycle:        55500000, Inst:        39029516
5190063336500: system.switch_cpus: Raw Gem5 Running in Cycle:        55600000, Inst:        39104272
5190113336500: system.switch_cpus: Raw Gem5 Running in Cycle:        55700000, Inst:        39174955
5190163336500: system.switch_cpus: Raw Gem5 Running in Cycle:        55800000, Inst:        39245711
5190213336500: system.switch_cpus: Raw Gem5 Running in Cycle:        55900000, Inst:        39316298
5190263336500: system.switch_cpus: Raw Gem5 Running in Cycle:        56000000, Inst:        39386080
5190313336500: system.switch_cpus: Raw Gem5 Running in Cycle:        56100000, Inst:        39458558
5190363336500: system.switch_cpus: Raw Gem5 Running in Cycle:        56200000, Inst:        39531702
5190413336500: system.switch_cpus: Raw Gem5 Running in Cycle:        56300000, Inst:        39603595
5190463336500: system.switch_cpus: Raw Gem5 Running in Cycle:        56400000, Inst:        39676574
5190513336500: system.switch_cpus: Raw Gem5 Running in Cycle:        56500000, Inst:        39749453
5190563336500: system.switch_cpus: Raw Gem5 Running in Cycle:        56600000, Inst:        39825298
5190613336500: system.switch_cpus: Raw Gem5 Running in Cycle:        56700000, Inst:        39898224
5190663336500: system.switch_cpus: Raw Gem5 Running in Cycle:        56800000, Inst:        39968989
5190713336500: system.switch_cpus: Raw Gem5 Running in Cycle:        56900000, Inst:        40038448
5190763336500: system.switch_cpus: Raw Gem5 Running in Cycle:        57000000, Inst:        40110533
5190813336500: system.switch_cpus: Raw Gem5 Running in Cycle:        57100000, Inst:        40181672
5190863336500: system.switch_cpus: Raw Gem5 Running in Cycle:        57200000, Inst:        40252811
5190913336500: system.switch_cpus: Raw Gem5 Running in Cycle:        57300000, Inst:        40326026
5190963336500: system.switch_cpus: Raw Gem5 Running in Cycle:        57400000, Inst:        40398261
5191013336500: system.switch_cpus: Raw Gem5 Running in Cycle:        57500000, Inst:        40468601
5191063336500: system.switch_cpus: Raw Gem5 Running in Cycle:        57600000, Inst:        40533561
5191113336500: system.switch_cpus: Raw Gem5 Running in Cycle:        57700000, Inst:        40603764
5191163336500: system.switch_cpus: Raw Gem5 Running in Cycle:        57800000, Inst:        40672653
5191213336500: system.switch_cpus: Raw Gem5 Running in Cycle:        57900000, Inst:        40741352
5191263336500: system.switch_cpus: Raw Gem5 Running in Cycle:        58000000, Inst:        40810613
5191313336500: system.switch_cpus: Raw Gem5 Running in Cycle:        58100000, Inst:        40878898
5191363336500: system.switch_cpus: Raw Gem5 Running in Cycle:        58200000, Inst:        40949357
5191413336500: system.switch_cpus: Raw Gem5 Running in Cycle:        58300000, Inst:        41018648
5191463336500: system.switch_cpus: Raw Gem5 Running in Cycle:        58400000, Inst:        41089173
5191513336500: system.switch_cpus: Raw Gem5 Running in Cycle:        58500000, Inst:        41161260
5191563336500: system.switch_cpus: Raw Gem5 Running in Cycle:        58600000, Inst:        41230973
5191613336500: system.switch_cpus: Raw Gem5 Running in Cycle:        58700000, Inst:        41298472
5191663336500: system.switch_cpus: Raw Gem5 Running in Cycle:        58800000, Inst:        41364258
5191713336500: system.switch_cpus: Raw Gem5 Running in Cycle:        58900000, Inst:        41430855
5191763336500: system.switch_cpus: Raw Gem5 Running in Cycle:        59000000, Inst:        41501005
5191813336500: system.switch_cpus: Raw Gem5 Running in Cycle:        59100000, Inst:        41570880
5191863336500: system.switch_cpus: Raw Gem5 Running in Cycle:        59200000, Inst:        41641076
5191913336500: system.switch_cpus: Raw Gem5 Running in Cycle:        59300000, Inst:        41710634
5191963336500: system.switch_cpus: Raw Gem5 Running in Cycle:        59400000, Inst:        41778254
5192013336500: system.switch_cpus: Raw Gem5 Running in Cycle:        59500000, Inst:        41848824
5192063336500: system.switch_cpus: Raw Gem5 Running in Cycle:        59600000, Inst:        41917994
5192113336500: system.switch_cpus: Raw Gem5 Running in Cycle:        59700000, Inst:        41989048
5192163336500: system.switch_cpus: Raw Gem5 Running in Cycle:        59800000, Inst:        42059978
5192213336500: system.switch_cpus: Raw Gem5 Running in Cycle:        59900000, Inst:        42128602
5192263336500: system.switch_cpus: Raw Gem5 Running in Cycle:        60000000, Inst:        42195995
5192313336500: system.switch_cpus: Raw Gem5 Running in Cycle:        60100000, Inst:        42264220
5192363336500: system.switch_cpus: Raw Gem5 Running in Cycle:        60200000, Inst:        42330817
5192413336500: system.switch_cpus: Raw Gem5 Running in Cycle:        60300000, Inst:        42397684
5192463336500: system.switch_cpus: Raw Gem5 Running in Cycle:        60400000, Inst:        42467653
5192513336500: system.switch_cpus: Raw Gem5 Running in Cycle:        60500000, Inst:        42536677
5192563336500: system.switch_cpus: Raw Gem5 Running in Cycle:        60600000, Inst:        42600608
5192613336500: system.switch_cpus: Raw Gem5 Running in Cycle:        60700000, Inst:        42666770
5192663336500: system.switch_cpus: Raw Gem5 Running in Cycle:        60800000, Inst:        42730164
5192713336500: system.switch_cpus: Raw Gem5 Running in Cycle:        60900000, Inst:        42796840
5192763336500: system.switch_cpus: Raw Gem5 Running in Cycle:        61000000, Inst:        42863093
5192813336500: system.switch_cpus: Raw Gem5 Running in Cycle:        61100000, Inst:        42930340
5192863336500: system.switch_cpus: Raw Gem5 Running in Cycle:        61200000, Inst:        42997675
5192913336500: system.switch_cpus: Raw Gem5 Running in Cycle:        61300000, Inst:        43064405
5192963336500: system.switch_cpus: Raw Gem5 Running in Cycle:        61400000, Inst:        43129995
5193013336500: system.switch_cpus: Raw Gem5 Running in Cycle:        61500000, Inst:        43197661
5193063336500: system.switch_cpus: Raw Gem5 Running in Cycle:        61600000, Inst:        43265703
5193113336500: system.switch_cpus: Raw Gem5 Running in Cycle:        61700000, Inst:        43331081
5193163336500: system.switch_cpus: Raw Gem5 Running in Cycle:        61800000, Inst:        43395691
5193213336500: system.switch_cpus: Raw Gem5 Running in Cycle:        61900000, Inst:        43460253
5193263336500: system.switch_cpus: Raw Gem5 Running in Cycle:        62000000, Inst:        43525992
5193313336500: system.switch_cpus: Raw Gem5 Running in Cycle:        62100000, Inst:        43593422
5193363336500: system.switch_cpus: Raw Gem5 Running in Cycle:        62200000, Inst:        43661989
5193413336500: system.switch_cpus: Raw Gem5 Running in Cycle:        62300000, Inst:        43726172
5193463336500: system.switch_cpus: Raw Gem5 Running in Cycle:        62400000, Inst:        43792663
5193513336500: system.switch_cpus: Raw Gem5 Running in Cycle:        62500000, Inst:        43860237
5193563336500: system.switch_cpus: Raw Gem5 Running in Cycle:        62600000, Inst:        43928232
5193613336500: system.switch_cpus: Raw Gem5 Running in Cycle:        62700000, Inst:        43997253
5193663336500: system.switch_cpus: Raw Gem5 Running in Cycle:        62800000, Inst:        44064828
5193713336500: system.switch_cpus: Raw Gem5 Running in Cycle:        62900000, Inst:        44131085
5193763336500: system.switch_cpus: Raw Gem5 Running in Cycle:        63000000, Inst:        44197163
5193813336500: system.switch_cpus: Raw Gem5 Running in Cycle:        63100000, Inst:        44264072
5193863336500: system.switch_cpus: Raw Gem5 Running in Cycle:        63200000, Inst:        44330697
5193913336500: system.switch_cpus: Raw Gem5 Running in Cycle:        63300000, Inst:        44395786
5193963336500: system.switch_cpus: Raw Gem5 Running in Cycle:        63400000, Inst:        44463078
5194013336500: system.switch_cpus: Raw Gem5 Running in Cycle:        63500000, Inst:        44530598
5194063336500: system.switch_cpus: Raw Gem5 Running in Cycle:        63600000, Inst:        44595684
5194113336500: system.switch_cpus: Raw Gem5 Running in Cycle:        63700000, Inst:        44659470
5194163336500: system.switch_cpus: Raw Gem5 Running in Cycle:        63800000, Inst:        44724180
5194213336500: system.switch_cpus: Raw Gem5 Running in Cycle:        63900000, Inst:        44790672
5194263336500: system.switch_cpus: Raw Gem5 Running in Cycle:        64000000, Inst:        44856169
5194313336500: system.switch_cpus: Raw Gem5 Running in Cycle:        64100000, Inst:        44921209
5194363336500: system.switch_cpus: Raw Gem5 Running in Cycle:        64200000, Inst:        44988780
5194413336500: system.switch_cpus: Raw Gem5 Running in Cycle:        64300000, Inst:        45056085
5194463336500: system.switch_cpus: Raw Gem5 Running in Cycle:        64400000, Inst:        45121364
5194513336500: system.switch_cpus: Raw Gem5 Running in Cycle:        64500000, Inst:        45187226
5194563336500: system.switch_cpus: Raw Gem5 Running in Cycle:        64600000, Inst:        45254197
5194613336500: system.switch_cpus: Raw Gem5 Running in Cycle:        64700000, Inst:        45322251
5194663336500: system.switch_cpus: Raw Gem5 Running in Cycle:        64800000, Inst:        45389609
5194713336500: system.switch_cpus: Raw Gem5 Running in Cycle:        64900000, Inst:        45455302
5194763336500: system.switch_cpus: Raw Gem5 Running in Cycle:        65000000, Inst:        45518080
5194813336500: system.switch_cpus: Raw Gem5 Running in Cycle:        65100000, Inst:        45583826
5194863336500: system.switch_cpus: Raw Gem5 Running in Cycle:        65200000, Inst:        45650693
5194913336500: system.switch_cpus: Raw Gem5 Running in Cycle:        65300000, Inst:        45719204
5194963336500: system.switch_cpus: Raw Gem5 Running in Cycle:        65400000, Inst:        45787242
5195013336500: system.switch_cpus: Raw Gem5 Running in Cycle:        65500000, Inst:        45854532
5195063336500: system.switch_cpus: Raw Gem5 Running in Cycle:        65600000, Inst:        45918816
5195113336500: system.switch_cpus: Raw Gem5 Running in Cycle:        65700000, Inst:        45984693
5195163336500: system.switch_cpus: Raw Gem5 Running in Cycle:        65800000, Inst:        46053730
5195213336500: system.switch_cpus: Raw Gem5 Running in Cycle:        65900000, Inst:        46122105
5195263336500: system.switch_cpus: Raw Gem5 Running in Cycle:        66000000, Inst:        46190464
5195313336500: system.switch_cpus: Raw Gem5 Running in Cycle:        66100000, Inst:        46257991
5195363336500: system.switch_cpus: Raw Gem5 Running in Cycle:        66200000, Inst:        46322934
5195413336500: system.switch_cpus: Raw Gem5 Running in Cycle:        66300000, Inst:        46387970
5195463336500: system.switch_cpus: Raw Gem5 Running in Cycle:        66400000, Inst:        46452256
5195513336500: system.switch_cpus: Raw Gem5 Running in Cycle:        66500000, Inst:        46519170
5195563336500: system.switch_cpus: Raw Gem5 Running in Cycle:        66600000, Inst:        46585330
5195613336500: system.switch_cpus: Raw Gem5 Running in Cycle:        66700000, Inst:        46652996
5195663336500: system.switch_cpus: Raw Gem5 Running in Cycle:        66800000, Inst:        46721142
5195713336500: system.switch_cpus: Raw Gem5 Running in Cycle:        66900000, Inst:        46784124
5195763336500: system.switch_cpus: Raw Gem5 Running in Cycle:        67000000, Inst:        46849910
5195813336500: system.switch_cpus: Raw Gem5 Running in Cycle:        67100000, Inst:        46915320
5195863336500: system.switch_cpus: Raw Gem5 Running in Cycle:        67200000, Inst:        46981818
5195913336500: system.switch_cpus: Raw Gem5 Running in Cycle:        67300000, Inst:        47047297
5195963336500: system.switch_cpus: Raw Gem5 Running in Cycle:        67400000, Inst:        47113898
5196013336500: system.switch_cpus: Raw Gem5 Running in Cycle:        67500000, Inst:        47181943
5196063336500: system.switch_cpus: Raw Gem5 Running in Cycle:        67600000, Inst:        47248390
5196113336500: system.switch_cpus: Raw Gem5 Running in Cycle:        67700000, Inst:        47314159
5196163336500: system.switch_cpus: Raw Gem5 Running in Cycle:        67800000, Inst:        47380348
5196213336500: system.switch_cpus: Raw Gem5 Running in Cycle:        67900000, Inst:        47448010
5196263336500: system.switch_cpus: Raw Gem5 Running in Cycle:        68000000, Inst:        47513280
5196313336500: system.switch_cpus: Raw Gem5 Running in Cycle:        68100000, Inst:        47579202
5196363336500: system.switch_cpus: Raw Gem5 Running in Cycle:        68200000, Inst:        47645837
5196413336500: system.switch_cpus: Raw Gem5 Running in Cycle:        68300000, Inst:        47710452
5196463336500: system.switch_cpus: Raw Gem5 Running in Cycle:        68400000, Inst:        47777699
5196513336500: system.switch_cpus: Raw Gem5 Running in Cycle:        68500000, Inst:        47843949
5196563336500: system.switch_cpus: Raw Gem5 Running in Cycle:        68600000, Inst:        47909355
5196613336500: system.switch_cpus: Raw Gem5 Running in Cycle:        68700000, Inst:        47975897
5196663336500: system.switch_cpus: Raw Gem5 Running in Cycle:        68800000, Inst:        48044317
5196713336500: system.switch_cpus: Raw Gem5 Running in Cycle:        68900000, Inst:        48110760
5196763336500: system.switch_cpus: Raw Gem5 Running in Cycle:        69000000, Inst:        48179554
5196813336500: system.switch_cpus: Raw Gem5 Running in Cycle:        69100000, Inst:        48246096
5196863336500: system.switch_cpus: Raw Gem5 Running in Cycle:        69200000, Inst:        48312124
5196913336500: system.switch_cpus: Raw Gem5 Running in Cycle:        69300000, Inst:        48378611
5196963336500: system.switch_cpus: Raw Gem5 Running in Cycle:        69400000, Inst:        48445106
5197013336500: system.switch_cpus: Raw Gem5 Running in Cycle:        69500000, Inst:        48510420
5197063336500: system.switch_cpus: Raw Gem5 Running in Cycle:        69600000, Inst:        48575631
5197113336500: system.switch_cpus: Raw Gem5 Running in Cycle:        69700000, Inst:        48641898
5197163336500: system.switch_cpus: Raw Gem5 Running in Cycle:        69800000, Inst:        48707592
5197213336500: system.switch_cpus: Raw Gem5 Running in Cycle:        69900000, Inst:        48772762
5197263336500: system.switch_cpus: Raw Gem5 Running in Cycle:        70000000, Inst:        48834584
5197313336500: system.switch_cpus: Raw Gem5 Running in Cycle:        70100000, Inst:        48900225
5197363336500: system.switch_cpus: Raw Gem5 Running in Cycle:        70200000, Inst:        48967796
5197413336500: system.switch_cpus: Raw Gem5 Running in Cycle:        70300000, Inst:        49031761
5197463336500: system.switch_cpus: Raw Gem5 Running in Cycle:        70400000, Inst:        49096371
5197513336500: system.switch_cpus: Raw Gem5 Running in Cycle:        70500000, Inst:        49160181
5197563336500: system.switch_cpus: Raw Gem5 Running in Cycle:        70600000, Inst:        49223897
5197613336500: system.switch_cpus: Raw Gem5 Running in Cycle:        70700000, Inst:        49290862
5197663336500: system.switch_cpus: Raw Gem5 Running in Cycle:        70800000, Inst:        49356981
5197713336500: system.switch_cpus: Raw Gem5 Running in Cycle:        70900000, Inst:        49423092
5197763336500: system.switch_cpus: Raw Gem5 Running in Cycle:        71000000, Inst:        49490666
5197813336500: system.switch_cpus: Raw Gem5 Running in Cycle:        71100000, Inst:        49553773
5197863336500: system.switch_cpus: Raw Gem5 Running in Cycle:        71200000, Inst:        49616642
5197913336500: system.switch_cpus: Raw Gem5 Running in Cycle:        71300000, Inst:        49682899
5197963336500: system.switch_cpus: Raw Gem5 Running in Cycle:        71400000, Inst:        49747516
5198013336500: system.switch_cpus: Raw Gem5 Running in Cycle:        71500000, Inst:        49812883
5198063336500: system.switch_cpus: Raw Gem5 Running in Cycle:        71600000, Inst:        49879370
5198113336500: system.switch_cpus: Raw Gem5 Running in Cycle:        71700000, Inst:        49943999
5198163336500: system.switch_cpus: Raw Gem5 Running in Cycle:        71800000, Inst:        50008175
5198213336500: system.switch_cpus: Raw Gem5 Running in Cycle:        71900000, Inst:        50072262
5198263336500: system.switch_cpus: Raw Gem5 Running in Cycle:        72000000, Inst:        50136410
5198313336500: system.switch_cpus: Raw Gem5 Running in Cycle:        72100000, Inst:        50203042
5198363336500: system.switch_cpus: Raw Gem5 Running in Cycle:        72200000, Inst:        50269626
5198413336500: system.switch_cpus: Raw Gem5 Running in Cycle:        72300000, Inst:        50336024
5198463336500: system.switch_cpus: Raw Gem5 Running in Cycle:        72400000, Inst:        50403171
5198513336500: system.switch_cpus: Raw Gem5 Running in Cycle:        72500000, Inst:        50468957
5198563336500: system.switch_cpus: Raw Gem5 Running in Cycle:        72600000, Inst:        50532394
5198613336500: system.switch_cpus: Raw Gem5 Running in Cycle:        72700000, Inst:        50594006
5198663336500: system.switch_cpus: Raw Gem5 Running in Cycle:        72800000, Inst:        50656332
5198713336500: system.switch_cpus: Raw Gem5 Running in Cycle:        72900000, Inst:        50722329
5198763336500: system.switch_cpus: Raw Gem5 Running in Cycle:        73000000, Inst:        50788774
5198813336500: system.switch_cpus: Raw Gem5 Running in Cycle:        73100000, Inst:        50854560
5198863336500: system.switch_cpus: Raw Gem5 Running in Cycle:        73200000, Inst:        50915489
5198913336500: system.switch_cpus: Raw Gem5 Running in Cycle:        73300000, Inst:        50978546
5198963336500: system.switch_cpus: Raw Gem5 Running in Cycle:        73400000, Inst:        51040530
5199013336500: system.switch_cpus: Raw Gem5 Running in Cycle:        73500000, Inst:        51103818
5199063336500: system.switch_cpus: Raw Gem5 Running in Cycle:        73600000, Inst:        51168386
5199113336500: system.switch_cpus: Raw Gem5 Running in Cycle:        73700000, Inst:        51233103
5199163336500: system.switch_cpus: Raw Gem5 Running in Cycle:        73800000, Inst:        51298551
5199213336500: system.switch_cpus: Raw Gem5 Running in Cycle:        73900000, Inst:        51360818
5199263336500: system.switch_cpus: Raw Gem5 Running in Cycle:        74000000, Inst:        51422376
5199313336500: system.switch_cpus: Raw Gem5 Running in Cycle:        74100000, Inst:        51485483
5199363336500: system.switch_cpus: Raw Gem5 Running in Cycle:        74200000, Inst:        51551078
5199413336500: system.switch_cpus: Raw Gem5 Running in Cycle:        74300000, Inst:        51616921
5199463336500: system.switch_cpus: Raw Gem5 Running in Cycle:        74400000, Inst:        51680776
5199513336500: system.switch_cpus: Raw Gem5 Running in Cycle:        74500000, Inst:        51742895
5199563336500: system.switch_cpus: Raw Gem5 Running in Cycle:        74600000, Inst:        51805297
5199613336500: system.switch_cpus: Raw Gem5 Running in Cycle:        74700000, Inst:        51870990
5199663336500: system.switch_cpus: Raw Gem5 Running in Cycle:        74800000, Inst:        51934196
5199713336500: system.switch_cpus: Raw Gem5 Running in Cycle:        74900000, Inst:        51998808
5199763336500: system.switch_cpus: Raw Gem5 Running in Cycle:        75000000, Inst:        52061497
5199813336500: system.switch_cpus: Raw Gem5 Running in Cycle:        75100000, Inst:        52124362
5199863336500: system.switch_cpus: Raw Gem5 Running in Cycle:        75200000, Inst:        52188745
5199913336500: system.switch_cpus: Raw Gem5 Running in Cycle:        75300000, Inst:        52253732
5199963336500: system.switch_cpus: Raw Gem5 Running in Cycle:        75400000, Inst:        52318719
5200013336500: system.switch_cpus: Raw Gem5 Running in Cycle:        75500000, Inst:        52383002
5200063336500: system.switch_cpus: Raw Gem5 Running in Cycle:        75600000, Inst:        52445026
5200113336500: system.switch_cpus: Raw Gem5 Running in Cycle:        75700000, Inst:        52509830
5200163336500: system.switch_cpus: Raw Gem5 Running in Cycle:        75800000, Inst:        52573789
5200213336500: system.switch_cpus: Raw Gem5 Running in Cycle:        75900000, Inst:        52636003
[...]
5226313336500: system.switch_cpus: Raw Gem5 Running in Cycle:       128100000, Inst:        85938754
5226363336500: system.switch_cpus: Raw Gem5 Running in Cycle:       128200000, Inst:        86006420
5226413336500: system.switch_cpus: Raw Gem5 Running in Cycle:       128300000, Inst:        86074275
5226463336500: system.switch_cpus: Raw Gem5 Running in Cycle:       128400000, Inst:        86142971
5226513336500: system.switch_cpus: Raw Gem5 Running in Cycle:       128500000, Inst:        86211017
5226563336500: system.switch_cpus: Raw Gem5 Running in Cycle:       128600000, Inst:        86278260
5226613336500: system.switch_cpus: Raw Gem5 Running in Cycle:       128700000, Inst:        86344678
5226663336500: system.switch_cpus: Raw Gem5 Running in Cycle:       128800000, Inst:        86412720
5226713336500: system.switch_cpus: Raw Gem5 Running in Cycle:       128900000, Inst:        86481899
5226763336500: system.switch_cpus: Raw Gem5 Running in Cycle:       129000000, Inst:        86551394
5226813336500: system.switch_cpus: Raw Gem5 Running in Cycle:       129100000, Inst:        86620986
5226863336500: system.switch_cpus: Raw Gem5 Running in Cycle:       129200000, Inst:        86688642
5226913336500: system.switch_cpus: Raw Gem5 Running in Cycle:       129300000, Inst:        86757263
5226963336500: system.switch_cpus: Raw Gem5 Running in Cycle:       129400000, Inst:        86824356
5227013336500: system.switch_cpus: Raw Gem5 Running in Cycle:       129500000, Inst:        86890144
5227063336500: system.switch_cpus: Raw Gem5 Running in Cycle:       129600000, Inst:        86955554
5227113336500: system.switch_cpus: Raw Gem5 Running in Cycle:       129700000, Inst:        87021253
5227163336500: system.switch_cpus: Raw Gem5 Running in Cycle:       129800000, Inst:        87089248
5227213336500: system.switch_cpus: Raw Gem5 Running in Cycle:       129900000, Inst:        87157516
5227263336500: system.switch_cpus: Raw Gem5 Running in Cycle:       130000000, Inst:        87228100
5227313336500: system.switch_cpus: Raw Gem5 Running in Cycle:       130100000, Inst:        87297741
5227363336500: system.switch_cpus: Raw Gem5 Running in Cycle:       130200000, Inst:        87365740
5227413336500: system.switch_cpus: Raw Gem5 Running in Cycle:       130300000, Inst:        87434482
5227463336500: system.switch_cpus: Raw Gem5 Running in Cycle:       130400000, Inst:        87500978
5227513336500: system.switch_cpus: Raw Gem5 Running in Cycle:       130500000, Inst:        87566522
5227563336500: system.switch_cpus: Raw Gem5 Running in Cycle:       130600000, Inst:        87631659
5227613336500: system.switch_cpus: Raw Gem5 Running in Cycle:       130700000, Inst:        87698562
5227663336500: system.switch_cpus: Raw Gem5 Running in Cycle:       130800000, Inst:        87764544
5227713336500: system.switch_cpus: Raw Gem5 Running in Cycle:       130900000, Inst:        87830710
5227763336500: system.switch_cpus: Raw Gem5 Running in Cycle:       131000000, Inst:        87899504
5227813336500: system.switch_cpus: Raw Gem5 Running in Cycle:       131100000, Inst:        87967922
5227863336500: system.switch_cpus: Raw Gem5 Running in Cycle:       131200000, Inst:        88035588
5227913336500: system.switch_cpus: Raw Gem5 Running in Cycle:       131300000, Inst:        88104754
5227963336500: system.switch_cpus: Raw Gem5 Running in Cycle:       131400000, Inst:        88173548
5228013336500: system.switch_cpus: Raw Gem5 Running in Cycle:       131500000, Inst:        88240935
5228063336500: system.switch_cpus: Raw Gem5 Running in Cycle:       131600000, Inst:        88308597
5228113336500: system.switch_cpus: Raw Gem5 Running in Cycle:       131700000, Inst:        88378010
5228163336500: system.switch_cpus: Raw Gem5 Running in Cycle:       131800000, Inst:        88444520
5228213336500: system.switch_cpus: Raw Gem5 Running in Cycle:       131900000, Inst:        88516707
5228263336500: system.switch_cpus: Raw Gem5 Running in Cycle:       132000000, Inst:        88586582
5228313336500: system.switch_cpus: Raw Gem5 Running in Cycle:       132100000, Inst:        88658424
5228363336500: system.switch_cpus: Raw Gem5 Running in Cycle:       132200000, Inst:        88729850
5228413336500: system.switch_cpus: Raw Gem5 Running in Cycle:       132300000, Inst:        88800148
5228463336500: system.switch_cpus: Raw Gem5 Running in Cycle:       132400000, Inst:        88871194
5228513336500: system.switch_cpus: Raw Gem5 Running in Cycle:       132500000, Inst:        88940139
5228563336500: system.switch_cpus: Raw Gem5 Running in Cycle:       132600000, Inst:        89008406
5228613336500: system.switch_cpus: Raw Gem5 Running in Cycle:       132700000, Inst:        89074944
5228663336500: system.switch_cpus: Raw Gem5 Running in Cycle:       132800000, Inst:        89145142
5228713336500: system.switch_cpus: Raw Gem5 Running in Cycle:       132900000, Inst:        89218176
5228763336500: system.switch_cpus: Raw Gem5 Running in Cycle:       133000000, Inst:        89291858
5228813336500: system.switch_cpus: Raw Gem5 Running in Cycle:       133100000, Inst:        89362154
5228863336500: system.switch_cpus: Raw Gem5 Running in Cycle:       133200000, Inst:        89432539
5228913336500: system.switch_cpus: Raw Gem5 Running in Cycle:       133300000, Inst:        89504250
5228963336500: system.switch_cpus: Raw Gem5 Running in Cycle:       133400000, Inst:        89573044
5229013336500: system.switch_cpus: Raw Gem5 Running in Cycle:       133500000, Inst:        89642685
5229063336500: system.switch_cpus: Raw Gem5 Running in Cycle:       133600000, Inst:        89709556
5229113336500: system.switch_cpus: Raw Gem5 Running in Cycle:       133700000, Inst:        89779811
5229163336500: system.switch_cpus: Raw Gem5 Running in Cycle:       133800000, Inst:        89848976
5229213336500: system.switch_cpus: Raw Gem5 Running in Cycle:       133900000, Inst:        89916128
5229263336500: system.switch_cpus: Raw Gem5 Running in Cycle:       134000000, Inst:        89986940
5229313336500: system.switch_cpus: Raw Gem5 Running in Cycle:       134100000, Inst:        90059866
5229363336500: system.switch_cpus: Raw Gem5 Running in Cycle:       134200000, Inst:        90132515
5229413336500: system.switch_cpus: Raw Gem5 Running in Cycle:       134300000, Inst:        90206250
5229463336500: system.switch_cpus: Raw Gem5 Running in Cycle:       134400000, Inst:        90277150
5229513336500: system.switch_cpus: Raw Gem5 Running in Cycle:       134500000, Inst:        90347824
5229563336500: system.switch_cpus: Raw Gem5 Running in Cycle:       134600000, Inst:        90418498
5229613336500: system.switch_cpus: Raw Gem5 Running in Cycle:       134700000, Inst:        90483462
5229663336500: system.switch_cpus: Raw Gem5 Running in Cycle:       134800000, Inst:        90556768
5229713336500: system.switch_cpus: Raw Gem5 Running in Cycle:       134900000, Inst:        90629331
5229763336500: system.switch_cpus: Raw Gem5 Running in Cycle:       135000000, Inst:        90707514
5229813336500: system.switch_cpus: Raw Gem5 Running in Cycle:       135100000, Inst:        90782703
5229863336500: system.switch_cpus: Raw Gem5 Running in Cycle:       135200000, Inst:        90856714
5229913336500: system.switch_cpus: Raw Gem5 Running in Cycle:       135300000, Inst:        90926213
5229963336500: system.switch_cpus: Raw Gem5 Running in Cycle:       135400000, Inst:        90996840
5230013336500: system.switch_cpus: Raw Gem5 Running in Cycle:       135500000, Inst:        91066214
5230063336500: system.switch_cpus: Raw Gem5 Running in Cycle:       135600000, Inst:        91137763
5230113336500: system.switch_cpus: Raw Gem5 Running in Cycle:       135700000, Inst:        91212099
5230163336500: system.switch_cpus: Raw Gem5 Running in Cycle:       135800000, Inst:        91286962
5230213336500: system.switch_cpus: Raw Gem5 Running in Cycle:       135900000, Inst:        91362275
5230263336500: system.switch_cpus: Raw Gem5 Running in Cycle:       136000000, Inst:        91441037
5230313336500: system.switch_cpus: Raw Gem5 Running in Cycle:       136100000, Inst:        91517349
5230363336500: system.switch_cpus: Raw Gem5 Running in Cycle:       136200000, Inst:        91589808
5230413336500: system.switch_cpus: Raw Gem5 Running in Cycle:       136300000, Inst:        91660607
5230463336500: system.switch_cpus: Raw Gem5 Running in Cycle:       136400000, Inst:        91730362
5230513336500: system.switch_cpus: Raw Gem5 Running in Cycle:       136500000, Inst:        91799865
5230563336500: system.switch_cpus: Raw Gem5 Running in Cycle:       136600000, Inst:        91870712
5230613336500: system.switch_cpus: Raw Gem5 Running in Cycle:       136700000, Inst:        91941160
5230663336500: system.switch_cpus: Raw Gem5 Running in Cycle:       136800000, Inst:        92013098
5230713336500: system.switch_cpus: Raw Gem5 Running in Cycle:       136900000, Inst:        92088748
5230763336500: system.switch_cpus: Raw Gem5 Running in Cycle:       137000000, Inst:        92164691
5230813336500: system.switch_cpus: Raw Gem5 Running in Cycle:       137100000, Inst:        92239550
5230863336500: system.switch_cpus: Raw Gem5 Running in Cycle:       137200000, Inst:        92312814
5230913336500: system.switch_cpus: Raw Gem5 Running in Cycle:       137300000, Inst:        92386018
5230963336500: system.switch_cpus: Raw Gem5 Running in Cycle:       137400000, Inst:        92459377
5231013336500: system.switch_cpus: Raw Gem5 Running in Cycle:       137500000, Inst:        92533694
5231063336500: system.switch_cpus: Raw Gem5 Running in Cycle:       137600000, Inst:        92606702
5231113336500: system.switch_cpus: Raw Gem5 Running in Cycle:       137700000, Inst:        92682654
5231163336500: system.switch_cpus: Raw Gem5 Running in Cycle:       137800000, Inst:        92758961
5231213336500: system.switch_cpus: Raw Gem5 Running in Cycle:       137900000, Inst:        92834513
5231263336500: system.switch_cpus: Raw Gem5 Running in Cycle:       138000000, Inst:        92909660
5231313336500: system.switch_cpus: Raw Gem5 Running in Cycle:       138100000, Inst:        92982588
5231363336500: system.switch_cpus: Raw Gem5 Running in Cycle:       138200000, Inst:        93054338
5231413336500: system.switch_cpus: Raw Gem5 Running in Cycle:       138300000, Inst:        93124218
5231463336500: system.switch_cpus: Raw Gem5 Running in Cycle:       138400000, Inst:        93195025
5231513336500: system.switch_cpus: Raw Gem5 Running in Cycle:       138500000, Inst:        93267352
5231563336500: system.switch_cpus: Raw Gem5 Running in Cycle:       138600000, Inst:        93342912
5231613336500: system.switch_cpus: Raw Gem5 Running in Cycle:       138700000, Inst:        93418472
5231663336500: system.switch_cpus: Raw Gem5 Running in Cycle:       138800000, Inst:        93495119
5231713336500: system.switch_cpus: Raw Gem5 Running in Cycle:       138900000, Inst:        93571964
5231763336500: system.switch_cpus: Raw Gem5 Running in Cycle:       139000000, Inst:        93645863
5231813336500: system.switch_cpus: Raw Gem5 Running in Cycle:       139100000, Inst:        93719494
5231863336500: system.switch_cpus: Raw Gem5 Running in Cycle:       139200000, Inst:        93790493
5231913336500: system.switch_cpus: Raw Gem5 Running in Cycle:       139300000, Inst:        93861500
5231963336500: system.switch_cpus: Raw Gem5 Running in Cycle:       139400000, Inst:        93933198
5232013336500: system.switch_cpus: Raw Gem5 Running in Cycle:       139500000, Inst:        94005050
5232063336500: system.switch_cpus: Raw Gem5 Running in Cycle:       139600000, Inst:        94076567
5232113336500: system.switch_cpus: Raw Gem5 Running in Cycle:       139700000, Inst:        94150445
5232163336500: system.switch_cpus: Raw Gem5 Running in Cycle:       139800000, Inst:        94225433
5232213336500: system.switch_cpus: Raw Gem5 Running in Cycle:       139900000, Inst:        94299404
5232263336500: system.switch_cpus: Raw Gem5 Running in Cycle:       140000000, Inst:        94374452
5232313336500: system.switch_cpus: Raw Gem5 Running in Cycle:       140100000, Inst:        94448504
5232363336500: system.switch_cpus: Raw Gem5 Running in Cycle:       140200000, Inst:        94522702
5232413336500: system.switch_cpus: Raw Gem5 Running in Cycle:       140300000, Inst:        94597506
5232463336500: system.switch_cpus: Raw Gem5 Running in Cycle:       140400000, Inst:        94665720
5232513336500: system.switch_cpus: Raw Gem5 Running in Cycle:       140500000, Inst:        94740528
5232563336500: system.switch_cpus: Raw Gem5 Running in Cycle:       140600000, Inst:        94815712
5232613336500: system.switch_cpus: Raw Gem5 Running in Cycle:       140700000, Inst:        94893290
5232663336500: system.switch_cpus: Raw Gem5 Running in Cycle:       140800000, Inst:        94969230
5232713336500: system.switch_cpus: Raw Gem5 Running in Cycle:       140900000, Inst:        95043855
5232763336500: system.switch_cpus: Raw Gem5 Running in Cycle:       141000000, Inst:        95116683
5232813336500: system.switch_cpus: Raw Gem5 Running in Cycle:       141100000, Inst:        95188855
5232863336500: system.switch_cpus: Raw Gem5 Running in Cycle:       141200000, Inst:        95261372
5232913336500: system.switch_cpus: Raw Gem5 Running in Cycle:       141300000, Inst:        95331668
5232963336500: system.switch_cpus: Raw Gem5 Running in Cycle:       141400000, Inst:        95407187
5233013336500: system.switch_cpus: Raw Gem5 Running in Cycle:       141500000, Inst:        95482246
5233063336500: system.switch_cpus: Raw Gem5 Running in Cycle:       141600000, Inst:        95557928
5233113336500: system.switch_cpus: Raw Gem5 Running in Cycle:       141700000, Inst:        95633112
5233163336500: system.switch_cpus: Raw Gem5 Running in Cycle:       141800000, Inst:        95706701
5233213336500: system.switch_cpus: Raw Gem5 Running in Cycle:       141900000, Inst:        95778218
5233263336500: system.switch_cpus: Raw Gem5 Running in Cycle:       142000000, Inst:        95850016
5233313336500: system.switch_cpus: Raw Gem5 Running in Cycle:       142100000, Inst:        95922665
5233363336500: system.switch_cpus: Raw Gem5 Running in Cycle:       142200000, Inst:        95996345
5233413336500: system.switch_cpus: Raw Gem5 Running in Cycle:       142300000, Inst:        96068954
5233463336500: system.switch_cpus: Raw Gem5 Running in Cycle:       142400000, Inst:        96142486
5233513336500: system.switch_cpus: Raw Gem5 Running in Cycle:       142500000, Inst:        96215414
5233563336500: system.switch_cpus: Raw Gem5 Running in Cycle:       142600000, Inst:        96290015
5233613336500: system.switch_cpus: Raw Gem5 Running in Cycle:       142700000, Inst:        96364708
5233663336500: system.switch_cpus: Raw Gem5 Running in Cycle:       142800000, Inst:        96439090
5233713336500: system.switch_cpus: Raw Gem5 Running in Cycle:       142900000, Inst:        96512018
5233763336500: system.switch_cpus: Raw Gem5 Running in Cycle:       143000000, Inst:        96585346
5233813336500: system.switch_cpus: Raw Gem5 Running in Cycle:       143100000, Inst:        96658755
5233863336500: system.switch_cpus: Raw Gem5 Running in Cycle:       143200000, Inst:        96728970
5233913336500: system.switch_cpus: Raw Gem5 Running in Cycle:       143300000, Inst:        96804046
5233963336500: system.switch_cpus: Raw Gem5 Running in Cycle:       143400000, Inst:        96878850
5234013336500: system.switch_cpus: Raw Gem5 Running in Cycle:       143500000, Inst:        96953288
5234063336500: system.switch_cpus: Raw Gem5 Running in Cycle:       143600000, Inst:        97028187
5234113336500: system.switch_cpus: Raw Gem5 Running in Cycle:       143700000, Inst:        97101869
5234163336500: system.switch_cpus: Raw Gem5 Running in Cycle:       143800000, Inst:        97173580
5234213336500: system.switch_cpus: Raw Gem5 Running in Cycle:       143900000, Inst:        97245380
5234263336500: system.switch_cpus: Raw Gem5 Running in Cycle:       144000000, Inst:        97319631
5234313336500: system.switch_cpus: Raw Gem5 Running in Cycle:       144100000, Inst:        97393585
5234363336500: system.switch_cpus: Raw Gem5 Running in Cycle:       144200000, Inst:        97468074
5234413336500: system.switch_cpus: Raw Gem5 Running in Cycle:       144300000, Inst:        97543203
5234463336500: system.switch_cpus: Raw Gem5 Running in Cycle:       144400000, Inst:        97619141
5234513336500: system.switch_cpus: Raw Gem5 Running in Cycle:       144500000, Inst:        97694230
5234563336500: system.switch_cpus: Raw Gem5 Running in Cycle:       144600000, Inst:        97767964
5234613336500: system.switch_cpus: Raw Gem5 Running in Cycle:       144700000, Inst:        97839003
5234663336500: system.switch_cpus: Raw Gem5 Running in Cycle:       144800000, Inst:        97911514
5234713336500: system.switch_cpus: Raw Gem5 Running in Cycle:       144900000, Inst:        97983454
5234763336500: system.switch_cpus: Raw Gem5 Running in Cycle:       145000000, Inst:        98057020
5234813336500: system.switch_cpus: Raw Gem5 Running in Cycle:       145100000, Inst:        98129554
5234863336500: system.switch_cpus: Raw Gem5 Running in Cycle:       145200000, Inst:        98201592
5234913336500: system.switch_cpus: Raw Gem5 Running in Cycle:       145300000, Inst:        98275410
5234963336500: system.switch_cpus: Raw Gem5 Running in Cycle:       145400000, Inst:        98350791
5235013336500: system.switch_cpus: Raw Gem5 Running in Cycle:       145500000, Inst:        98425121
5235063336500: system.switch_cpus: Raw Gem5 Running in Cycle:       145600000, Inst:        98499986
5235113336500: system.switch_cpus: Raw Gem5 Running in Cycle:       145700000, Inst:        98575411
5235163336500: system.switch_cpus: Raw Gem5 Running in Cycle:       145800000, Inst:        98649458
5235213336500: system.switch_cpus: Raw Gem5 Running in Cycle:       145900000, Inst:        98723514
5235263336500: system.switch_cpus: Raw Gem5 Running in Cycle:       146000000, Inst:        98794866
5235313336500: system.switch_cpus: Raw Gem5 Running in Cycle:       146100000, Inst:        98870709
5235363336500: system.switch_cpus: Raw Gem5 Running in Cycle:       146200000, Inst:        98946364
5235413336500: system.switch_cpus: Raw Gem5 Running in Cycle:       146300000, Inst:        99021322
5235463336500: system.switch_cpus: Raw Gem5 Running in Cycle:       146400000, Inst:        99096081
5235513336500: system.switch_cpus: Raw Gem5 Running in Cycle:       146500000, Inst:        99169286
5235563336500: system.switch_cpus: Raw Gem5 Running in Cycle:       146600000, Inst:        99240174
5235613336500: system.switch_cpus: Raw Gem5 Running in Cycle:       146700000, Inst:        99312523
5235663336500: system.switch_cpus: Raw Gem5 Running in Cycle:       146800000, Inst:        99383944
5235713336500: system.switch_cpus: Raw Gem5 Running in Cycle:       146900000, Inst:        99456206
5235763336500: system.switch_cpus: Raw Gem5 Running in Cycle:       147000000, Inst:        99530461
5235813336500: system.switch_cpus: Raw Gem5 Running in Cycle:       147100000, Inst:        99605362
5235863336500: system.switch_cpus: Raw Gem5 Running in Cycle:       147200000, Inst:        99680172
5235913336500: system.switch_cpus: Raw Gem5 Running in Cycle:       147300000, Inst:        99754088
5235963336500: system.switch_cpus: Raw Gem5 Running in Cycle:       147400000, Inst:        99828749
5236013336500: system.switch_cpus: Raw Gem5 Running in Cycle:       147500000, Inst:        99902809
5236063336500: system.switch_cpus: Raw Gem5 Running in Cycle:       147600000, Inst:        99976020
Exiting @ tick 5236080915500 because a thread reached the max instruction count
end time:(year-mon-day hour-minute-second)19-03-30 23-44-23
