
******************************directory****************************
spec_dir: /home/cuihongwei/experiment/mcpat-gem5-master/spec2006/benchspec/CPU2006
run_dir:  /home/cuihongwei/experiment/mcpat-gem5-master/spec2006/benchspec/CPU2006/433.milc/run/run_base_ref_amd64.0001
gem5_dir: /home/cuihongwei/experiment/experiment-gem5/raw-gem5
gem5_output_dir: /home/cuihongwei/experiment/experiment-gem5/raw-gem5/output/433.milc/alpha-OLD-433.milc-input1-190330-224953
benchmark_output:/home/cuihongwei/experiment/experiment-gem5/raw-gem5/output/433.milc/alpha-OLD-433.milc-input1-190330-224953
checkpoint_dir:/home/cuihongwei/experiment/experiment-gem5/pubs-gem5/output/alpha-433.milc-checkpoint-input1

******************************benchmark****************************
target:     433.milc
executable: milc
args:       
input:      su3imp.in
output:     /home/cuihongwei/experiment/experiment-gem5/raw-gem5/output/433.milc/alpha-OLD-433.milc-input1-190330-224953/su3imp.out
errout:     /home/cuihongwei/experiment/experiment-gem5/raw-gem5/output/433.milc/alpha-OLD-433.milc-input1-190330-224953/su3imp.err

******************************gem5****************************
arch:       /home/cuihongwei/experiment/experiment-gem5/raw-gem5/build/ALPHA/gem5.opt
config:     /home/cuihongwei/experiment/experiment-gem5/raw-gem5/configs/example/se.py
args:       --num-cpus=1 --mem-size=8GB --caches --l1d_size=32kB --l1d_assoc=8 --l1i_size=32kB --l1i_assoc=8 --l2cache --l2_size=2MB --l2_assoc=16 --at-instruction --checkpoint-restore=5000000000 --maxinsts=100000000 --cpu-type=DerivO3CPU
debugFlag:  --debug-flags=ShowRunning

******************************simulation****************************
start time:(year-mon-day hour-minute-second)19-03-30 22-49-53
gem5 Simulator System.  http://gem5.org
gem5 is copyrighted software; use the --copyright option for details.

gem5 compiled Mar 30 2019 20:24:53
gem5 started Mar 30 2019 22:49:53
gem5 executing on mprc-R730, pid 14025
command line: /home/cuihongwei/experiment/experiment-gem5/raw-gem5/build/ALPHA/gem5.opt --outdir=/home/cuihongwei/experiment/experiment-gem5/raw-gem5/output/433.milc/alpha-OLD-433.milc-input1-190330-224953 --debug-flags=ShowRunning /home/cuihongwei/experiment/experiment-gem5/raw-gem5/configs/example/se.py --num-cpus=1 --mem-size=8GB --caches --l1d_size=32kB --l1d_assoc=8 --l1i_size=32kB --l1i_assoc=8 --l2cache --l2_size=2MB --l2_assoc=16 --at-instruction --checkpoint-restore=5000000000 --maxinsts=100000000 --cpu-type=DerivO3CPU --checkpoint-dir=/home/cuihongwei/experiment/experiment-gem5/pubs-gem5/output/alpha-433.milc-checkpoint-input1 --cmd=/home/cuihongwei/experiment/mcpat-gem5-master/spec2006/benchspec/CPU2006/433.milc/run/build_peak_alpha.0001/milc --options= --output=/home/cuihongwei/experiment/experiment-gem5/raw-gem5/output/433.milc/alpha-OLD-433.milc-input1-190330-224953/su3imp.out --input=su3imp.in --errout=/home/cuihongwei/experiment/experiment-gem5/raw-gem5/output/433.milc/alpha-OLD-433.milc-input1-190330-224953/su3imp.err

Global frequency set at 1000000000000 ticks per second
Switch at curTick count:10000
Switched CPUS @ tick 2531628818000
switching cpus
**** REAL SIMULATION ****
2531628818500: system.switch_cpus: Raw Gem5 Running in Cycle:               0, Inst:               0
2531679771500: system.switch_cpus: Raw Gem5 Running in Cycle:          100000, Inst:           51714
2531729771500: system.switch_cpus: Raw Gem5 Running in Cycle:          200000, Inst:          103051
2531779771500: system.switch_cpus: Raw Gem5 Running in Cycle:          300000, Inst:          154388
2531829771500: system.switch_cpus: Raw Gem5 Running in Cycle:          400000, Inst:          206443
2531879771500: system.switch_cpus: Raw Gem5 Running in Cycle:          500000, Inst:          257903
2531929771500: system.switch_cpus: Raw Gem5 Running in Cycle:          600000, Inst:          308758
2531979771500: system.switch_cpus: Raw Gem5 Running in Cycle:          700000, Inst:          360577
2532029771500: system.switch_cpus: Raw Gem5 Running in Cycle:          800000, Inst:          411432
2532079771500: system.switch_cpus: Raw Gem5 Running in Cycle:          900000, Inst:          462465
2532129771500: system.switch_cpus: Raw Gem5 Running in Cycle:         1000000, Inst:          514549
2532179771500: system.switch_cpus: Raw Gem5 Running in Cycle:         1100000, Inst:          565925
2532229771500: system.switch_cpus: Raw Gem5 Running in Cycle:         1200000, Inst:          616505
2532279771500: system.switch_cpus: Raw Gem5 Running in Cycle:         1300000, Inst:          667046
2532329771500: system.switch_cpus: Raw Gem5 Running in Cycle:         1400000, Inst:          718380
2532379771500: system.switch_cpus: Raw Gem5 Running in Cycle:         1500000, Inst:          770076
2532429771500: system.switch_cpus: Raw Gem5 Running in Cycle:         1600000, Inst:          821772
2532479771500: system.switch_cpus: Raw Gem5 Running in Cycle:         1700000, Inst:          872747
2532529771500: system.switch_cpus: Raw Gem5 Running in Cycle:         1800000, Inst:          923725
2532579771500: system.switch_cpus: Raw Gem5 Running in Cycle:         1900000, Inst:          974344
2532629771500: system.switch_cpus: Raw Gem5 Running in Cycle:         2000000, Inst:         1025681
2532679771500: system.switch_cpus: Raw Gem5 Running in Cycle:         2100000, Inst:         1076355
2532729771500: system.switch_cpus: Raw Gem5 Running in Cycle:         2200000, Inst:         1127760
2532779771500: system.switch_cpus: Raw Gem5 Running in Cycle:         2300000, Inst:         1179692
2532829771500: system.switch_cpus: Raw Gem5 Running in Cycle:         2400000, Inst:         1231029
2532879771500: system.switch_cpus: Raw Gem5 Running in Cycle:         2500000, Inst:         1282130
2532929771500: system.switch_cpus: Raw Gem5 Running in Cycle:         2600000, Inst:         1333706
2532979771500: system.switch_cpus: Raw Gem5 Running in Cycle:         2700000, Inst:         1384354
2533029771500: system.switch_cpus: Raw Gem5 Running in Cycle:         2800000, Inst:         1435743
2533079771500: system.switch_cpus: Raw Gem5 Running in Cycle:         2900000, Inst:         1487036
2533129771500: system.switch_cpus: Raw Gem5 Running in Cycle:         3000000, Inst:         1538417
2533179771500: system.switch_cpus: Raw Gem5 Running in Cycle:         3100000, Inst:         1589670
2533229771500: system.switch_cpus: Raw Gem5 Running in Cycle:         3200000, Inst:         1640292
2533279771500: system.switch_cpus: Raw Gem5 Running in Cycle:         3300000, Inst:         1691351
2533329771500: system.switch_cpus: Raw Gem5 Running in Cycle:         3400000, Inst:         1742963
2533379771500: system.switch_cpus: Raw Gem5 Running in Cycle:         3500000, Inst:         1793582
2533429771500: system.switch_cpus: Raw Gem5 Running in Cycle:         3600000, Inst:         1844683
2533479771500: system.switch_cpus: Raw Gem5 Running in Cycle:         3700000, Inst:         1896655
2533529771500: system.switch_cpus: Raw Gem5 Running in Cycle:         3800000, Inst:         1948311
2533579771500: system.switch_cpus: Raw Gem5 Running in Cycle:         3900000, Inst:         1999289
2533629771500: system.switch_cpus: Raw Gem5 Running in Cycle:         4000000, Inst:         2050563
2533679771500: system.switch_cpus: Raw Gem5 Running in Cycle:         4100000, Inst:         2102322
2533729771500: system.switch_cpus: Raw Gem5 Running in Cycle:         4200000, Inst:         2153025
2533779771500: system.switch_cpus: Raw Gem5 Running in Cycle:         4300000, Inst:         2204637
2533829771500: system.switch_cpus: Raw Gem5 Running in Cycle:         4400000, Inst:         2256014
2533879771500: system.switch_cpus: Raw Gem5 Running in Cycle:         4500000, Inst:         2306992
2533929771500: system.switch_cpus: Raw Gem5 Running in Cycle:         4600000, Inst:         2358289
2533979771500: system.switch_cpus: Raw Gem5 Running in Cycle:         4700000, Inst:         2410108
2534029771500: system.switch_cpus: Raw Gem5 Running in Cycle:         4800000, Inst:         2461406
2534079771500: system.switch_cpus: Raw Gem5 Running in Cycle:         4900000, Inst:         2512659
2534129771500: system.switch_cpus: Raw Gem5 Running in Cycle:         5000000, Inst:         2563637
2534179771500: system.switch_cpus: Raw Gem5 Running in Cycle:         5100000, Inst:         2615333
2534229771500: system.switch_cpus: Raw Gem5 Running in Cycle:         5200000, Inst:         2666670
2534279771500: system.switch_cpus: Raw Gem5 Running in Cycle:         5300000, Inst:         2717373
2534329771500: system.switch_cpus: Raw Gem5 Running in Cycle:         5400000, Inst:         2768632
2534379771500: system.switch_cpus: Raw Gem5 Running in Cycle:         5500000, Inst:         2820322
2534429771500: system.switch_cpus: Raw Gem5 Running in Cycle:         5600000, Inst:         2870944
2534479771500: system.switch_cpus: Raw Gem5 Running in Cycle:         5700000, Inst:         2922042
2534529771500: system.switch_cpus: Raw Gem5 Running in Cycle:         5800000, Inst:         2973977
2534579771500: system.switch_cpus: Raw Gem5 Running in Cycle:         5900000, Inst:         3025673
2534629771500: system.switch_cpus: Raw Gem5 Running in Cycle:         6000000, Inst:         3076289
2534679771500: system.switch_cpus: Raw Gem5 Running in Cycle:         6100000, Inst:         3127249
2534729771500: system.switch_cpus: Raw Gem5 Running in Cycle:         6200000, Inst:         3178604
2534779771500: system.switch_cpus: Raw Gem5 Running in Cycle:         6300000, Inst:         3229941
2534829771500: system.switch_cpus: Raw Gem5 Running in Cycle:         6400000, Inst:         3281278
2534879771500: system.switch_cpus: Raw Gem5 Running in Cycle:         6500000, Inst:         3332974
2534929771500: system.switch_cpus: Raw Gem5 Running in Cycle:         6600000, Inst:         3384434
2534979771500: system.switch_cpus: Raw Gem5 Running in Cycle:         6700000, Inst:         3434930
2535029771500: system.switch_cpus: Raw Gem5 Running in Cycle:         6800000, Inst:         3486031
2535079771500: system.switch_cpus: Raw Gem5 Running in Cycle:         6900000, Inst:         3537607
2535129771500: system.switch_cpus: Raw Gem5 Running in Cycle:         7000000, Inst:         3589423
2535179771500: system.switch_cpus: Raw Gem5 Running in Cycle:         7100000, Inst:         3640637
2535229771500: system.switch_cpus: Raw Gem5 Running in Cycle:         7200000, Inst:         3691655
2535279771500: system.switch_cpus: Raw Gem5 Running in Cycle:         7300000, Inst:         3742596
2535329771500: system.switch_cpus: Raw Gem5 Running in Cycle:         7400000, Inst:         3793930
2535379771500: system.switch_cpus: Raw Gem5 Running in Cycle:         7500000, Inst:         3844593
2535429771500: system.switch_cpus: Raw Gem5 Running in Cycle:         7600000, Inst:         3896329
2535479771500: system.switch_cpus: Raw Gem5 Running in Cycle:         7700000, Inst:         3947223
2535529771500: system.switch_cpus: Raw Gem5 Running in Cycle:         7800000, Inst:         3998566
2535579771500: system.switch_cpus: Raw Gem5 Running in Cycle:         7900000, Inst:         4049900
2535629771500: system.switch_cpus: Raw Gem5 Running in Cycle:         8000000, Inst:         4100519
2535679771500: system.switch_cpus: Raw Gem5 Running in Cycle:         8100000, Inst:         4151853
2535729771500: system.switch_cpus: Raw Gem5 Running in Cycle:         8200000, Inst:         4202954
2535779771500: system.switch_cpus: Raw Gem5 Running in Cycle:         8300000, Inst:         4254168
2535829771500: system.switch_cpus: Raw Gem5 Running in Cycle:         8400000, Inst:         4306229
2535879771500: system.switch_cpus: Raw Gem5 Running in Cycle:         8500000, Inst:         4357204
2535929771500: system.switch_cpus: Raw Gem5 Running in Cycle:         8600000, Inst:         4409256
2535979771500: system.switch_cpus: Raw Gem5 Running in Cycle:         8700000, Inst:         4459639
2536029771500: system.switch_cpus: Raw Gem5 Running in Cycle:         8800000, Inst:         4511215
2536079771500: system.switch_cpus: Raw Gem5 Running in Cycle:         8900000, Inst:         4562908
2536129771500: system.switch_cpus: Raw Gem5 Running in Cycle:         9000000, Inst:         4613223
2536179771500: system.switch_cpus: Raw Gem5 Running in Cycle:         9100000, Inst:         4663787
2536229771500: system.switch_cpus: Raw Gem5 Running in Cycle:         9200000, Inst:         4715483
2536279771500: system.switch_cpus: Raw Gem5 Running in Cycle:         9300000, Inst:         4766860
2536329771500: system.switch_cpus: Raw Gem5 Running in Cycle:         9400000, Inst:         4817494
2536379771500: system.switch_cpus: Raw Gem5 Running in Cycle:         9500000, Inst:         4869853
2536429771500: system.switch_cpus: Raw Gem5 Running in Cycle:         9600000, Inst:         4920475
2536479771500: system.switch_cpus: Raw Gem5 Running in Cycle:         9700000, Inst:         4970017
2536529771500: system.switch_cpus: Raw Gem5 Running in Cycle:         9800000, Inst:         5019556
2536579771500: system.switch_cpus: Raw Gem5 Running in Cycle:         9900000, Inst:         5068823
2536629771500: system.switch_cpus: Raw Gem5 Running in Cycle:        10000000, Inst:         5118284
2536679771500: system.switch_cpus: Raw Gem5 Running in Cycle:        10100000, Inst:         5168182
2536729771500: system.switch_cpus: Raw Gem5 Running in Cycle:        10200000, Inst:         5218167
2536779771500: system.switch_cpus: Raw Gem5 Running in Cycle:        10300000, Inst:         5267350
2536829771500: system.switch_cpus: Raw Gem5 Running in Cycle:        10400000, Inst:         5316449
2536879771500: system.switch_cpus: Raw Gem5 Running in Cycle:        10500000, Inst:         5365357
2536929771500: system.switch_cpus: Raw Gem5 Running in Cycle:        10600000, Inst:         5414496
2536979771500: system.switch_cpus: Raw Gem5 Running in Cycle:        10700000, Inst:         5463679
2537029771500: system.switch_cpus: Raw Gem5 Running in Cycle:        10800000, Inst:         5512822
2537079771500: system.switch_cpus: Raw Gem5 Running in Cycle:        10900000, Inst:         5563082
2537129771500: system.switch_cpus: Raw Gem5 Running in Cycle:        11000000, Inst:         5612265
2537179771500: system.switch_cpus: Raw Gem5 Running in Cycle:        11100000, Inst:         5661813
2537229771500: system.switch_cpus: Raw Gem5 Running in Cycle:        11200000, Inst:         5711711
2537279771500: system.switch_cpus: Raw Gem5 Running in Cycle:        11300000, Inst:         5761373
2537329771500: system.switch_cpus: Raw Gem5 Running in Cycle:        11400000, Inst:         5811510
2537379771500: system.switch_cpus: Raw Gem5 Running in Cycle:        11500000, Inst:         5860629
2537429771500: system.switch_cpus: Raw Gem5 Running in Cycle:        11600000, Inst:         5910953
2537479771500: system.switch_cpus: Raw Gem5 Running in Cycle:        11700000, Inst:         5960309
2537529771500: system.switch_cpus: Raw Gem5 Running in Cycle:        11800000, Inst:         6009325
2537579771500: system.switch_cpus: Raw Gem5 Running in Cycle:        11900000, Inst:         6058687
2537629771500: system.switch_cpus: Raw Gem5 Running in Cycle:        12000000, Inst:         6107755
2537679771500: system.switch_cpus: Raw Gem5 Running in Cycle:        12100000, Inst:         6156512
2537729771500: system.switch_cpus: Raw Gem5 Running in Cycle:        12200000, Inst:         6206135
2537779771500: system.switch_cpus: Raw Gem5 Running in Cycle:        12300000, Inst:         6256395
2537829771500: system.switch_cpus: Raw Gem5 Running in Cycle:        12400000, Inst:         6305853
2537879771500: system.switch_cpus: Raw Gem5 Running in Cycle:        12500000, Inst:         6354680
2537929771500: system.switch_cpus: Raw Gem5 Running in Cycle:        12600000, Inst:         6403863
2537979771500: system.switch_cpus: Raw Gem5 Running in Cycle:        12700000, Inst:         6452690
2538029771500: system.switch_cpus: Raw Gem5 Running in Cycle:        12800000, Inst:         6501233
2538079771500: system.switch_cpus: Raw Gem5 Running in Cycle:        12900000, Inst:         6550316
2538129771500: system.switch_cpus: Raw Gem5 Running in Cycle:        13000000, Inst:         6599958
2538179771500: system.switch_cpus: Raw Gem5 Running in Cycle:        13100000, Inst:         6649057
2538229771500: system.switch_cpus: Raw Gem5 Running in Cycle:        13200000, Inst:         6697965
2538279771500: system.switch_cpus: Raw Gem5 Running in Cycle:        13300000, Inst:         6747423
2538329771500: system.switch_cpus: Raw Gem5 Running in Cycle:        13400000, Inst:         6796884
2538379771500: system.switch_cpus: Raw Gem5 Running in Cycle:        13500000, Inst:         6846151
2538429771500: system.switch_cpus: Raw Gem5 Running in Cycle:        13600000, Inst:         6895331
2538479771500: system.switch_cpus: Raw Gem5 Running in Cycle:        13700000, Inst:         6944876
2538529771500: system.switch_cpus: Raw Gem5 Running in Cycle:        13800000, Inst:         6994056
2538579771500: system.switch_cpus: Raw Gem5 Running in Cycle:        13900000, Inst:         7043242
2538629771500: system.switch_cpus: Raw Gem5 Running in Cycle:        14000000, Inst:         7092422
2538679771500: system.switch_cpus: Raw Gem5 Running in Cycle:        14100000, Inst:         7141605
2538729771500: system.switch_cpus: Raw Gem5 Running in Cycle:        14200000, Inst:         7190650
2538779771500: system.switch_cpus: Raw Gem5 Running in Cycle:        14300000, Inst:         7239652
2538829771500: system.switch_cpus: Raw Gem5 Running in Cycle:        14400000, Inst:         7289516
2538879771500: system.switch_cpus: Raw Gem5 Running in Cycle:        14500000, Inst:         7338696
2538929771500: system.switch_cpus: Raw Gem5 Running in Cycle:        14600000, Inst:         7387643
2538979771500: system.switch_cpus: Raw Gem5 Running in Cycle:        14700000, Inst:         7436703
2539029771500: system.switch_cpus: Raw Gem5 Running in Cycle:        14800000, Inst:         7485970
2539079771500: system.switch_cpus: Raw Gem5 Running in Cycle:        14900000, Inst:         7535072
2539129771500: system.switch_cpus: Raw Gem5 Running in Cycle:        15000000, Inst:         7584611
2539179771500: system.switch_cpus: Raw Gem5 Running in Cycle:        15100000, Inst:         7634515
2539229771500: system.switch_cpus: Raw Gem5 Running in Cycle:        15200000, Inst:         7684483
2539279771500: system.switch_cpus: Raw Gem5 Running in Cycle:        15300000, Inst:         7734039
2539329771500: system.switch_cpus: Raw Gem5 Running in Cycle:        15400000, Inst:         7783144
2539379771500: system.switch_cpus: Raw Gem5 Running in Cycle:        15500000, Inst:         7831962
2539429771500: system.switch_cpus: Raw Gem5 Running in Cycle:        15600000, Inst:         7880068
2539479771500: system.switch_cpus: Raw Gem5 Running in Cycle:        15700000, Inst:         7928617
2539529771500: system.switch_cpus: Raw Gem5 Running in Cycle:        15800000, Inst:         7978796
2539579771500: system.switch_cpus: Raw Gem5 Running in Cycle:        15900000, Inst:         8028016
2539629771500: system.switch_cpus: Raw Gem5 Running in Cycle:        16000000, Inst:         8077518
2539679771500: system.switch_cpus: Raw Gem5 Running in Cycle:        16100000, Inst:         8127066
2539729771500: system.switch_cpus: Raw Gem5 Running in Cycle:        16200000, Inst:         8175890
2539779771500: system.switch_cpus: Raw Gem5 Running in Cycle:        16300000, Inst:         8225429
2539829771500: system.switch_cpus: Raw Gem5 Running in Cycle:        16400000, Inst:         8273996
2539879771500: system.switch_cpus: Raw Gem5 Running in Cycle:        16500000, Inst:         8323433
2539929771500: system.switch_cpus: Raw Gem5 Running in Cycle:        16600000, Inst:         8372087
2539979771500: system.switch_cpus: Raw Gem5 Running in Cycle:        16700000, Inst:         8421165
2540029771500: system.switch_cpus: Raw Gem5 Running in Cycle:        16800000, Inst:         8470335
2540079771500: system.switch_cpus: Raw Gem5 Running in Cycle:        16900000, Inst:         8520530
2540129771500: system.switch_cpus: Raw Gem5 Running in Cycle:        17000000, Inst:         8569707
2540179771500: system.switch_cpus: Raw Gem5 Running in Cycle:        17100000, Inst:         8618216
2540229771500: system.switch_cpus: Raw Gem5 Running in Cycle:        17200000, Inst:         8668432
2540279771500: system.switch_cpus: Raw Gem5 Running in Cycle:        17300000, Inst:         8717974
2540329771500: system.switch_cpus: Raw Gem5 Running in Cycle:        17400000, Inst:         8767522
2540379771500: system.switch_cpus: Raw Gem5 Running in Cycle:        17500000, Inst:         8817420
2540429771500: system.switch_cpus: Raw Gem5 Running in Cycle:        17600000, Inst:         8868042
2540479771500: system.switch_cpus: Raw Gem5 Running in Cycle:        17700000, Inst:         8917662
2540529771500: system.switch_cpus: Raw Gem5 Running in Cycle:        17800000, Inst:         8966402
2540579771500: system.switch_cpus: Raw Gem5 Running in Cycle:        17900000, Inst:         9016343
2540629771500: system.switch_cpus: Raw Gem5 Running in Cycle:        18000000, Inst:         9065434
2540679771500: system.switch_cpus: Raw Gem5 Running in Cycle:        18100000, Inst:         9115387
2540729771500: system.switch_cpus: Raw Gem5 Running in Cycle:        18200000, Inst:         9165052
2540779771500: system.switch_cpus: Raw Gem5 Running in Cycle:        18300000, Inst:         9214836
2540829771500: system.switch_cpus: Raw Gem5 Running in Cycle:        18400000, Inst:         9264372
2540879771500: system.switch_cpus: Raw Gem5 Running in Cycle:        18500000, Inst:         9312840
2540929771500: system.switch_cpus: Raw Gem5 Running in Cycle:        18600000, Inst:         9362741
2540979771500: system.switch_cpus: Raw Gem5 Running in Cycle:        18700000, Inst:         9411196
2541029771500: system.switch_cpus: Raw Gem5 Running in Cycle:        18800000, Inst:         9460748
2541079771500: system.switch_cpus: Raw Gem5 Running in Cycle:        18900000, Inst:         9509572
2541129771500: system.switch_cpus: Raw Gem5 Running in Cycle:        19000000, Inst:         9558477
2541179771500: system.switch_cpus: Raw Gem5 Running in Cycle:        19100000, Inst:         9608653
2541229771500: system.switch_cpus: Raw Gem5 Running in Cycle:        19200000, Inst:         9657265
2541279771500: system.switch_cpus: Raw Gem5 Running in Cycle:        19300000, Inst:         9707142
2541329771500: system.switch_cpus: Raw Gem5 Running in Cycle:        19400000, Inst:         9756202
2541379771500: system.switch_cpus: Raw Gem5 Running in Cycle:        19500000, Inst:         9805388
2541429771500: system.switch_cpus: Raw Gem5 Running in Cycle:        19600000, Inst:         9854212
2541479771500: system.switch_cpus: Raw Gem5 Running in Cycle:        19700000, Inst:         9903874
2541529771500: system.switch_cpus: Raw Gem5 Running in Cycle:        19800000, Inst:         9953293
2541579771500: system.switch_cpus: Raw Gem5 Running in Cycle:        19900000, Inst:        10001402
2541629771500: system.switch_cpus: Raw Gem5 Running in Cycle:        20000000, Inst:        10051200
2541679771500: system.switch_cpus: Raw Gem5 Running in Cycle:        20100000, Inst:        10100247
2541729771500: system.switch_cpus: Raw Gem5 Running in Cycle:        20200000, Inst:        10149075
2541779771500: system.switch_cpus: Raw Gem5 Running in Cycle:        20300000, Inst:        10198574
2541829771500: system.switch_cpus: Raw Gem5 Running in Cycle:        20400000, Inst:        10247320
2541879771500: system.switch_cpus: Raw Gem5 Running in Cycle:        20500000, Inst:        10296581
2541929771500: system.switch_cpus: Raw Gem5 Running in Cycle:        20600000, Inst:        10346042
2541979771500: system.switch_cpus: Raw Gem5 Running in Cycle:        20700000, Inst:        10395581
2542029771500: system.switch_cpus: Raw Gem5 Running in Cycle:        20800000, Inst:        10444764
2542079771500: system.switch_cpus: Raw Gem5 Running in Cycle:        20900000, Inst:        10493711
2542129771500: system.switch_cpus: Raw Gem5 Running in Cycle:        21000000, Inst:        10542894
2542179771500: system.switch_cpus: Raw Gem5 Running in Cycle:        21100000, Inst:        10592313
2542229771500: system.switch_cpus: Raw Gem5 Running in Cycle:        21200000, Inst:        10641489
2542279771500: system.switch_cpus: Raw Gem5 Running in Cycle:        21300000, Inst:        10690084
2542329771500: system.switch_cpus: Raw Gem5 Running in Cycle:        21400000, Inst:        10740221
2542379771500: system.switch_cpus: Raw Gem5 Running in Cycle:        21500000, Inst:        10789407
2542429771500: system.switch_cpus: Raw Gem5 Running in Cycle:        21600000, Inst:        10838946
2542479771500: system.switch_cpus: Raw Gem5 Running in Cycle:        21700000, Inst:        10888132
2542529771500: system.switch_cpus: Raw Gem5 Running in Cycle:        21800000, Inst:        10937318
2542579771500: system.switch_cpus: Raw Gem5 Running in Cycle:        21900000, Inst:        10986894
2542629771500: system.switch_cpus: Raw Gem5 Running in Cycle:        22000000, Inst:        11035349
2542679771500: system.switch_cpus: Raw Gem5 Running in Cycle:        22100000, Inst:        11084586
2542729771500: system.switch_cpus: Raw Gem5 Running in Cycle:        22200000, Inst:        11133944
2542779771500: system.switch_cpus: Raw Gem5 Running in Cycle:        22300000, Inst:        11183227
2542829771500: system.switch_cpus: Raw Gem5 Running in Cycle:        22400000, Inst:        11232416
2542879771500: system.switch_cpus: Raw Gem5 Running in Cycle:        22500000, Inst:        11281677
2542929771500: system.switch_cpus: Raw Gem5 Running in Cycle:        22600000, Inst:        11331494
2542979771500: system.switch_cpus: Raw Gem5 Running in Cycle:        22700000, Inst:        11379999
2543029771500: system.switch_cpus: Raw Gem5 Running in Cycle:        22800000, Inst:        11429585
2543079771500: system.switch_cpus: Raw Gem5 Running in Cycle:        22900000, Inst:        11479036
2543129771500: system.switch_cpus: Raw Gem5 Running in Cycle:        23000000, Inst:        11528588
2543179771500: system.switch_cpus: Raw Gem5 Running in Cycle:        23100000, Inst:        11577768
2543229771500: system.switch_cpus: Raw Gem5 Running in Cycle:        23200000, Inst:        11626991
2543279771500: system.switch_cpus: Raw Gem5 Running in Cycle:        23300000, Inst:        11676512
2543329771500: system.switch_cpus: Raw Gem5 Running in Cycle:        23400000, Inst:        11725760
2543379771500: system.switch_cpus: Raw Gem5 Running in Cycle:        23500000, Inst:        11776298
2543429771500: system.switch_cpus: Raw Gem5 Running in Cycle:        23600000, Inst:        11826199
2543479771500: system.switch_cpus: Raw Gem5 Running in Cycle:        23700000, Inst:        11876097
2543529771500: system.switch_cpus: Raw Gem5 Running in Cycle:        23800000, Inst:        11924924
2543579771500: system.switch_cpus: Raw Gem5 Running in Cycle:        23900000, Inst:        11974503
2543629771500: system.switch_cpus: Raw Gem5 Running in Cycle:        24000000, Inst:        12024364
2543679771500: system.switch_cpus: Raw Gem5 Running in Cycle:        24100000, Inst:        12072593
2543729771500: system.switch_cpus: Raw Gem5 Running in Cycle:        24200000, Inst:        12122853
2543779771500: system.switch_cpus: Raw Gem5 Running in Cycle:        24300000, Inst:        12172272
2543829771500: system.switch_cpus: Raw Gem5 Running in Cycle:        24400000, Inst:        12221854
2543879771500: system.switch_cpus: Raw Gem5 Running in Cycle:        24500000, Inst:        12270997
2543929771500: system.switch_cpus: Raw Gem5 Running in Cycle:        24600000, Inst:        12320662
2543979771500: system.switch_cpus: Raw Gem5 Running in Cycle:        24700000, Inst:        12370799
2544029771500: system.switch_cpus: Raw Gem5 Running in Cycle:        24800000, Inst:        12418310
2544079771500: system.switch_cpus: Raw Gem5 Running in Cycle:        24900000, Inst:        12468453
2544129771500: system.switch_cpus: Raw Gem5 Running in Cycle:        25000000, Inst:        12516918
2544179771500: system.switch_cpus: Raw Gem5 Running in Cycle:        25100000, Inst:        12566095
2544229771500: system.switch_cpus: Raw Gem5 Running in Cycle:        25200000, Inst:        12615362
2544279771500: system.switch_cpus: Raw Gem5 Running in Cycle:        25300000, Inst:        12664584
2544329771500: system.switch_cpus: Raw Gem5 Running in Cycle:        25400000, Inst:        12713174
2544379771500: system.switch_cpus: Raw Gem5 Running in Cycle:        25500000, Inst:        12762474
2544429771500: system.switch_cpus: Raw Gem5 Running in Cycle:        25600000, Inst:        12812372
2544479771500: system.switch_cpus: Raw Gem5 Running in Cycle:        25700000, Inst:        12861675
2544529771500: system.switch_cpus: Raw Gem5 Running in Cycle:        25800000, Inst:        12911234
2544579771500: system.switch_cpus: Raw Gem5 Running in Cycle:        25900000, Inst:        12959958
2544629771500: system.switch_cpus: Raw Gem5 Running in Cycle:        26000000, Inst:        13009463
2544679771500: system.switch_cpus: Raw Gem5 Running in Cycle:        26100000, Inst:        13058766
2544729771500: system.switch_cpus: Raw Gem5 Running in Cycle:        26200000, Inst:        13107826
2544779771500: system.switch_cpus: Raw Gem5 Running in Cycle:        26300000, Inst:        13158092
2544829771500: system.switch_cpus: Raw Gem5 Running in Cycle:        26400000, Inst:        13207353
2544879771500: system.switch_cpus: Raw Gem5 Running in Cycle:        26500000, Inst:        13256533
2544929771500: system.switch_cpus: Raw Gem5 Running in Cycle:        26600000, Inst:        13305792
2544979771500: system.switch_cpus: Raw Gem5 Running in Cycle:        26700000, Inst:        13355180
2545029771500: system.switch_cpus: Raw Gem5 Running in Cycle:        26800000, Inst:        13404722
2545079771500: system.switch_cpus: Raw Gem5 Running in Cycle:        26900000, Inst:        13453583
2545129771500: system.switch_cpus: Raw Gem5 Running in Cycle:        27000000, Inst:        13504246
2545179771500: system.switch_cpus: Raw Gem5 Running in Cycle:        27100000, Inst:        13553710
2545229771500: system.switch_cpus: Raw Gem5 Running in Cycle:        27200000, Inst:        13603964
2545279771500: system.switch_cpus: Raw Gem5 Running in Cycle:        27300000, Inst:        13653868
2545329771500: system.switch_cpus: Raw Gem5 Running in Cycle:        27400000, Inst:        13703769
2545379771500: system.switch_cpus: Raw Gem5 Running in Cycle:        27500000, Inst:        13753308
2545429771500: system.switch_cpus: Raw Gem5 Running in Cycle:        27600000, Inst:        13802484
2545479771500: system.switch_cpus: Raw Gem5 Running in Cycle:        27700000, Inst:        13852751
2545529771500: system.switch_cpus: Raw Gem5 Running in Cycle:        27800000, Inst:        13901934
2545579771500: system.switch_cpus: Raw Gem5 Running in Cycle:        27900000, Inst:        13951201
2545629771500: system.switch_cpus: Raw Gem5 Running in Cycle:        28000000, Inst:        14000423
2545679771500: system.switch_cpus: Raw Gem5 Running in Cycle:        28100000, Inst:        14049124
2545729771500: system.switch_cpus: Raw Gem5 Running in Cycle:        28200000, Inst:        14098391
2545779771500: system.switch_cpus: Raw Gem5 Running in Cycle:        28300000, Inst:        14147131
2545829771500: system.switch_cpus: Raw Gem5 Running in Cycle:        28400000, Inst:        14197391
2545879771500: system.switch_cpus: Raw Gem5 Running in Cycle:        28500000, Inst:        14246614
2545929771500: system.switch_cpus: Raw Gem5 Running in Cycle:        28600000, Inst:        14296156
2545979771500: system.switch_cpus: Raw Gem5 Running in Cycle:        28700000, Inst:        14345292
2546029771500: system.switch_cpus: Raw Gem5 Running in Cycle:        28800000, Inst:        14394116
2546079771500: system.switch_cpus: Raw Gem5 Running in Cycle:        28900000, Inst:        14444030
2546129771500: system.switch_cpus: Raw Gem5 Running in Cycle:        29000000, Inst:        14492492
2546179771500: system.switch_cpus: Raw Gem5 Running in Cycle:        29100000, Inst:        14542037
2546229771500: system.switch_cpus: Raw Gem5 Running in Cycle:        29200000, Inst:        14591220
2546279771500: system.switch_cpus: Raw Gem5 Running in Cycle:        29300000, Inst:        14640400
2546329771500: system.switch_cpus: Raw Gem5 Running in Cycle:        29400000, Inst:        14689939
2546379771500: system.switch_cpus: Raw Gem5 Running in Cycle:        29500000, Inst:        14739880
2546429771500: system.switch_cpus: Raw Gem5 Running in Cycle:        29600000, Inst:        14790100
2546479771500: system.switch_cpus: Raw Gem5 Running in Cycle:        29700000, Inst:        14839283
2546529771500: system.switch_cpus: Raw Gem5 Running in Cycle:        29800000, Inst:        14889543
2546579771500: system.switch_cpus: Raw Gem5 Running in Cycle:        29900000, Inst:        14938628
2546629771500: system.switch_cpus: Raw Gem5 Running in Cycle:        30000000, Inst:        14988308
2546679771500: system.switch_cpus: Raw Gem5 Running in Cycle:        30100000, Inst:        15037810
2546729771500: system.switch_cpus: Raw Gem5 Running in Cycle:        30200000, Inst:        15086996
2546779771500: system.switch_cpus: Raw Gem5 Running in Cycle:        30300000, Inst:        15136934
2546829771500: system.switch_cpus: Raw Gem5 Running in Cycle:        30400000, Inst:        15185718
2546879771500: system.switch_cpus: Raw Gem5 Running in Cycle:        30500000, Inst:        15235612
2546929771500: system.switch_cpus: Raw Gem5 Running in Cycle:        30600000, Inst:        15284168
2546979771500: system.switch_cpus: Raw Gem5 Running in Cycle:        30700000, Inst:        15333267
2547029771500: system.switch_cpus: Raw Gem5 Running in Cycle:        30800000, Inst:        15382893
2547079771500: system.switch_cpus: Raw Gem5 Running in Cycle:        30900000, Inst:        15432032
2547129771500: system.switch_cpus: Raw Gem5 Running in Cycle:        31000000, Inst:        15481893
2547179771500: system.switch_cpus: Raw Gem5 Running in Cycle:        31100000, Inst:        15530606
2547229771500: system.switch_cpus: Raw Gem5 Running in Cycle:        31200000, Inst:        15580546
2547279771500: system.switch_cpus: Raw Gem5 Running in Cycle:        31300000, Inst:        15629805
2547329771500: system.switch_cpus: Raw Gem5 Running in Cycle:        31400000, Inst:        15678990
2547379771500: system.switch_cpus: Raw Gem5 Running in Cycle:        31500000, Inst:        15727572
2547429771500: system.switch_cpus: Raw Gem5 Running in Cycle:        31600000, Inst:        15777353
2547479771500: system.switch_cpus: Raw Gem5 Running in Cycle:        31700000, Inst:        15826536
2547529771500: system.switch_cpus: Raw Gem5 Running in Cycle:        31800000, Inst:        15874679
2547579771500: system.switch_cpus: Raw Gem5 Running in Cycle:        31900000, Inst:        15924899
2547629771500: system.switch_cpus: Raw Gem5 Running in Cycle:        32000000, Inst:        15974088
2547679771500: system.switch_cpus: Raw Gem5 Running in Cycle:        32100000, Inst:        16022670
2547729771500: system.switch_cpus: Raw Gem5 Running in Cycle:        32200000, Inst:        16072089
2547779771500: system.switch_cpus: Raw Gem5 Running in Cycle:        32300000, Inst:        16120594
2547829771500: system.switch_cpus: Raw Gem5 Running in Cycle:        32400000, Inst:        16170096
2547879771500: system.switch_cpus: Raw Gem5 Running in Cycle:        32500000, Inst:        16218926
2547929771500: system.switch_cpus: Raw Gem5 Running in Cycle:        32600000, Inst:        16268905
2547979771500: system.switch_cpus: Raw Gem5 Running in Cycle:        32700000, Inst:        16318356
2548029771500: system.switch_cpus: Raw Gem5 Running in Cycle:        32800000, Inst:        16367546
2548079771500: system.switch_cpus: Raw Gem5 Running in Cycle:        32900000, Inst:        16416813
2548129771500: system.switch_cpus: Raw Gem5 Running in Cycle:        33000000, Inst:        16465565
2548179771500: system.switch_cpus: Raw Gem5 Running in Cycle:        33100000, Inst:        16514377
2548229771500: system.switch_cpus: Raw Gem5 Running in Cycle:        33200000, Inst:        16563201
2548279771500: system.switch_cpus: Raw Gem5 Running in Cycle:        33300000, Inst:        16613461
2548329771500: system.switch_cpus: Raw Gem5 Running in Cycle:        33400000, Inst:        16662285
2548379771500: system.switch_cpus: Raw Gem5 Running in Cycle:        33500000, Inst:        16711121
2548429771500: system.switch_cpus: Raw Gem5 Running in Cycle:        33600000, Inst:        16760735
2548479771500: system.switch_cpus: Raw Gem5 Running in Cycle:        33700000, Inst:        16809468
2548529771500: system.switch_cpus: Raw Gem5 Running in Cycle:        33800000, Inst:        16858658
2548579771500: system.switch_cpus: Raw Gem5 Running in Cycle:        33900000, Inst:        16907841
2548629771500: system.switch_cpus: Raw Gem5 Running in Cycle:        34000000, Inst:        16957739
2548679771500: system.switch_cpus: Raw Gem5 Running in Cycle:        34100000, Inst:        17006606
2548729771500: system.switch_cpus: Raw Gem5 Running in Cycle:        34200000, Inst:        17055466
2548779771500: system.switch_cpus: Raw Gem5 Running in Cycle:        34300000, Inst:        17105291
2548829771500: system.switch_cpus: Raw Gem5 Running in Cycle:        34400000, Inst:        17154199
2548879771500: system.switch_cpus: Raw Gem5 Running in Cycle:        34500000, Inst:        17203660
2548929771500: system.switch_cpus: Raw Gem5 Running in Cycle:        34600000, Inst:        17252206
2548979771500: system.switch_cpus: Raw Gem5 Running in Cycle:        34700000, Inst:        17302023
2549029771500: system.switch_cpus: Raw Gem5 Running in Cycle:        34800000, Inst:        17350853
2549079771500: system.switch_cpus: Raw Gem5 Running in Cycle:        34900000, Inst:        17400070
2549129771500: system.switch_cpus: Raw Gem5 Running in Cycle:        35000000, Inst:        17449554
2549179771500: system.switch_cpus: Raw Gem5 Running in Cycle:        35100000, Inst:        17499114
2549229771500: system.switch_cpus: Raw Gem5 Running in Cycle:        35200000, Inst:        17548659
2549279771500: system.switch_cpus: Raw Gem5 Running in Cycle:        35300000, Inst:        17597879
2549329771500: system.switch_cpus: Raw Gem5 Running in Cycle:        35400000, Inst:        17648498
2549379771500: system.switch_cpus: Raw Gem5 Running in Cycle:        35500000, Inst:        17697641
2549429771500: system.switch_cpus: Raw Gem5 Running in Cycle:        35600000, Inst:        17747545
2549479771500: system.switch_cpus: Raw Gem5 Running in Cycle:        35700000, Inst:        17796729
2549529771500: system.switch_cpus: Raw Gem5 Running in Cycle:        35800000, Inst:        17846031
2549579771500: system.switch_cpus: Raw Gem5 Running in Cycle:        35900000, Inst:        17896174
2549629771500: system.switch_cpus: Raw Gem5 Running in Cycle:        36000000, Inst:        17945354
2549679771500: system.switch_cpus: Raw Gem5 Running in Cycle:        36100000, Inst:        17995245
2549729771500: system.switch_cpus: Raw Gem5 Running in Cycle:        36200000, Inst:        18044428
2549779771500: system.switch_cpus: Raw Gem5 Running in Cycle:        36300000, Inst:        18093980
2549829771500: system.switch_cpus: Raw Gem5 Running in Cycle:        36400000, Inst:        18142885
2549879771500: system.switch_cpus: Raw Gem5 Running in Cycle:        36500000, Inst:        18191628
2549929771500: system.switch_cpus: Raw Gem5 Running in Cycle:        36600000, Inst:        18241508
2549979771500: system.switch_cpus: Raw Gem5 Running in Cycle:        36700000, Inst:        18289991
2550029771500: system.switch_cpus: Raw Gem5 Running in Cycle:        36800000, Inst:        18339892
2550079771500: system.switch_cpus: Raw Gem5 Running in Cycle:        36900000, Inst:        18388722
2550129771500: system.switch_cpus: Raw Gem5 Running in Cycle:        37000000, Inst:        18437899
2550179771500: system.switch_cpus: Raw Gem5 Running in Cycle:        37100000, Inst:        18487082
2550229771500: system.switch_cpus: Raw Gem5 Running in Cycle:        37200000, Inst:        18536265
2550279771500: system.switch_cpus: Raw Gem5 Running in Cycle:        37300000, Inst:        18585173
2550329771500: system.switch_cpus: Raw Gem5 Running in Cycle:        37400000, Inst:        18634272
2550379771500: system.switch_cpus: Raw Gem5 Running in Cycle:        37500000, Inst:        18684532
2550429771500: system.switch_cpus: Raw Gem5 Running in Cycle:        37600000, Inst:        18733120
2550479771500: system.switch_cpus: Raw Gem5 Running in Cycle:        37700000, Inst:        18781905
2550529771500: system.switch_cpus: Raw Gem5 Running in Cycle:        37800000, Inst:        18831447
2550579771500: system.switch_cpus: Raw Gem5 Running in Cycle:        37900000, Inst:        18880549
2550629771500: system.switch_cpus: Raw Gem5 Running in Cycle:        38000000, Inst:        18929813
2550679771500: system.switch_cpus: Raw Gem5 Running in Cycle:        38100000, Inst:        18978710
2550729771500: system.switch_cpus: Raw Gem5 Running in Cycle:        38200000, Inst:        19028813
2550779771500: system.switch_cpus: Raw Gem5 Running in Cycle:        38300000, Inst:        19078348
2550829771500: system.switch_cpus: Raw Gem5 Running in Cycle:        38400000, Inst:        19127541
2550879771500: system.switch_cpus: Raw Gem5 Running in Cycle:        38500000, Inst:        19177114
2550929771500: system.switch_cpus: Raw Gem5 Running in Cycle:        38600000, Inst:        19227104
2550979771500: system.switch_cpus: Raw Gem5 Running in Cycle:        38700000, Inst:        19275530
2551029771500: system.switch_cpus: Raw Gem5 Running in Cycle:        38800000, Inst:        19323911
2551079771500: system.switch_cpus: Raw Gem5 Running in Cycle:        38900000, Inst:        19373815
2551129771500: system.switch_cpus: Raw Gem5 Running in Cycle:        39000000, Inst:        19422639
2551179771500: system.switch_cpus: Raw Gem5 Running in Cycle:        39100000, Inst:        19471819
2551229771500: system.switch_cpus: Raw Gem5 Running in Cycle:        39200000, Inst:        19520643
2551279771500: system.switch_cpus: Raw Gem5 Running in Cycle:        39300000, Inst:        19569111
2551329771500: system.switch_cpus: Raw Gem5 Running in Cycle:        39400000, Inst:        19618291
2551379771500: system.switch_cpus: Raw Gem5 Running in Cycle:        39500000, Inst:        19666756
2551429771500: system.switch_cpus: Raw Gem5 Running in Cycle:        39600000, Inst:        19716741
2551479771500: system.switch_cpus: Raw Gem5 Running in Cycle:        39700000, Inst:        19766233
2551529771500: system.switch_cpus: Raw Gem5 Running in Cycle:        39800000, Inst:        19815023
2551579771500: system.switch_cpus: Raw Gem5 Running in Cycle:        39900000, Inst:        19864565
2551629771500: system.switch_cpus: Raw Gem5 Running in Cycle:        40000000, Inst:        19914100
2551679771500: system.switch_cpus: Raw Gem5 Running in Cycle:        40100000, Inst:        19963015
2551729771500: system.switch_cpus: Raw Gem5 Running in Cycle:        40200000, Inst:        20012026
2551779771500: system.switch_cpus: Raw Gem5 Running in Cycle:        40300000, Inst:        20061656
2551829771500: system.switch_cpus: Raw Gem5 Running in Cycle:        40400000, Inst:        20110520
2551879771500: system.switch_cpus: Raw Gem5 Running in Cycle:        40500000, Inst:        20160022
2551929771500: system.switch_cpus: Raw Gem5 Running in Cycle:        40600000, Inst:        20209564
2551979771500: system.switch_cpus: Raw Gem5 Running in Cycle:        40700000, Inst:        20258495
2552029771500: system.switch_cpus: Raw Gem5 Running in Cycle:        40800000, Inst:        20308289
2552079771500: system.switch_cpus: Raw Gem5 Running in Cycle:        40900000, Inst:        20357113
2552129771500: system.switch_cpus: Raw Gem5 Running in Cycle:        41000000, Inst:        20407098
2552179771500: system.switch_cpus: Raw Gem5 Running in Cycle:        41100000, Inst:        20456793
2552229771500: system.switch_cpus: Raw Gem5 Running in Cycle:        41200000, Inst:        20505732
2552279771500: system.switch_cpus: Raw Gem5 Running in Cycle:        41300000, Inst:        20554647
2552329771500: system.switch_cpus: Raw Gem5 Running in Cycle:        41400000, Inst:        20604089
2552379771500: system.switch_cpus: Raw Gem5 Running in Cycle:        41500000, Inst:        20653013
2552429771500: system.switch_cpus: Raw Gem5 Running in Cycle:        41600000, Inst:        20701111
2552479771500: system.switch_cpus: Raw Gem5 Running in Cycle:        41700000, Inst:        20751379
2552529771500: system.switch_cpus: Raw Gem5 Running in Cycle:        41800000, Inst:        20800562
2552579771500: system.switch_cpus: Raw Gem5 Running in Cycle:        41900000, Inst:        20850020
2552629771500: system.switch_cpus: Raw Gem5 Running in Cycle:        42000000, Inst:        20898928
2552679771500: system.switch_cpus: Raw Gem5 Running in Cycle:        42100000, Inst:        20948470
2552729771500: system.switch_cpus: Raw Gem5 Running in Cycle:        42200000, Inst:        20997928
2552779771500: system.switch_cpus: Raw Gem5 Running in Cycle:        42300000, Inst:        21046792
2552829771500: system.switch_cpus: Raw Gem5 Running in Cycle:        42400000, Inst:        21096653
2552879771500: system.switch_cpus: Raw Gem5 Running in Cycle:        42500000, Inst:        21146279
2552929771500: system.switch_cpus: Raw Gem5 Running in Cycle:        42600000, Inst:        21196455
2552979771500: system.switch_cpus: Raw Gem5 Running in Cycle:        42700000, Inst:        21246715
2553029771500: system.switch_cpus: Raw Gem5 Running in Cycle:        42800000, Inst:        21296622
2553079771500: system.switch_cpus: Raw Gem5 Running in Cycle:        42900000, Inst:        21346158
2553129771500: system.switch_cpus: Raw Gem5 Running in Cycle:        43000000, Inst:        21395341
2553179771500: system.switch_cpus: Raw Gem5 Running in Cycle:        43100000, Inst:        21444883
2553229771500: system.switch_cpus: Raw Gem5 Running in Cycle:        43200000, Inst:        21493791
2553279771500: system.switch_cpus: Raw Gem5 Running in Cycle:        43300000, Inst:        21543629
2553329771500: system.switch_cpus: Raw Gem5 Running in Cycle:        43400000, Inst:        21592680
2553379771500: system.switch_cpus: Raw Gem5 Running in Cycle:        43500000, Inst:        21641974
2553429771500: system.switch_cpus: Raw Gem5 Running in Cycle:        43600000, Inst:        21691516
2553479771500: system.switch_cpus: Raw Gem5 Running in Cycle:        43700000, Inst:        21740692
2553529771500: system.switch_cpus: Raw Gem5 Running in Cycle:        43800000, Inst:        21789882
2553579771500: system.switch_cpus: Raw Gem5 Running in Cycle:        43900000, Inst:        21839427
2553629771500: system.switch_cpus: Raw Gem5 Running in Cycle:        44000000, Inst:        21888254
2553679771500: system.switch_cpus: Raw Gem5 Running in Cycle:        44100000, Inst:        21937437
2553729771500: system.switch_cpus: Raw Gem5 Running in Cycle:        44200000, Inst:        21986614
2553779771500: system.switch_cpus: Raw Gem5 Running in Cycle:        44300000, Inst:        22036159
2553829771500: system.switch_cpus: Raw Gem5 Running in Cycle:        44400000, Inst:        22085332
2553879771500: system.switch_cpus: Raw Gem5 Running in Cycle:        44500000, Inst:        22135021
2553929771500: system.switch_cpus: Raw Gem5 Running in Cycle:        44600000, Inst:        22183789
2553979771500: system.switch_cpus: Raw Gem5 Running in Cycle:        44700000, Inst:        22232532
2554029771500: system.switch_cpus: Raw Gem5 Running in Cycle:        44800000, Inst:        22282071
2554079771500: system.switch_cpus: Raw Gem5 Running in Cycle:        44900000, Inst:        22331254
2554129771500: system.switch_cpus: Raw Gem5 Running in Cycle:        45000000, Inst:        22380437
2554179771500: system.switch_cpus: Raw Gem5 Running in Cycle:        45100000, Inst:        22429660
2554229771500: system.switch_cpus: Raw Gem5 Running in Cycle:        45200000, Inst:        22479521
2554279771500: system.switch_cpus: Raw Gem5 Running in Cycle:        45300000, Inst:        22527986
2554329771500: system.switch_cpus: Raw Gem5 Running in Cycle:        45400000, Inst:        22577169
2554379771500: system.switch_cpus: Raw Gem5 Running in Cycle:        45500000, Inst:        22626111
2554429771500: system.switch_cpus: Raw Gem5 Running in Cycle:        45600000, Inst:        22675179
2554479771500: system.switch_cpus: Raw Gem5 Running in Cycle:        45700000, Inst:        22723939
2554529771500: system.switch_cpus: Raw Gem5 Running in Cycle:        45800000, Inst:        22772908
2554579771500: system.switch_cpus: Raw Gem5 Running in Cycle:        45900000, Inst:        22822366
2554629771500: system.switch_cpus: Raw Gem5 Running in Cycle:        46000000, Inst:        22871672
2554679771500: system.switch_cpus: Raw Gem5 Running in Cycle:        46100000, Inst:        22921019
2554729771500: system.switch_cpus: Raw Gem5 Running in Cycle:        46200000, Inst:        22970633
2554779771500: system.switch_cpus: Raw Gem5 Running in Cycle:        46300000, Inst:        23019816
2554829771500: system.switch_cpus: Raw Gem5 Running in Cycle:        46400000, Inst:        23068640
2554879771500: system.switch_cpus: Raw Gem5 Running in Cycle:        46500000, Inst:        23118182
2554929771500: system.switch_cpus: Raw Gem5 Running in Cycle:        46600000, Inst:        23167129
2554979771500: system.switch_cpus: Raw Gem5 Running in Cycle:        46700000, Inst:        23216554
2555029771500: system.switch_cpus: Raw Gem5 Running in Cycle:        46800000, Inst:        23266096
2555079771500: system.switch_cpus: Raw Gem5 Running in Cycle:        46900000, Inst:        23315357
2555129771500: system.switch_cpus: Raw Gem5 Running in Cycle:        47000000, Inst:        23364462
2555179771500: system.switch_cpus: Raw Gem5 Running in Cycle:        47100000, Inst:        23413998
2555229771500: system.switch_cpus: Raw Gem5 Running in Cycle:        47200000, Inst:        23463181
2555279771500: system.switch_cpus: Raw Gem5 Running in Cycle:        47300000, Inst:        23512807
2555329771500: system.switch_cpus: Raw Gem5 Running in Cycle:        47400000, Inst:        23561909
2555379771500: system.switch_cpus: Raw Gem5 Running in Cycle:        47500000, Inst:        23611092
2555429771500: system.switch_cpus: Raw Gem5 Running in Cycle:        47600000, Inst:        23660395
2555479771500: system.switch_cpus: Raw Gem5 Running in Cycle:        47700000, Inst:        23709854
2555529771500: system.switch_cpus: Raw Gem5 Running in Cycle:        47800000, Inst:        23758997
2555579771500: system.switch_cpus: Raw Gem5 Running in Cycle:        47900000, Inst:        23807821
2555629771500: system.switch_cpus: Raw Gem5 Running in Cycle:        48000000, Inst:        23856729
2555679771500: system.switch_cpus: Raw Gem5 Running in Cycle:        48100000, Inst:        23906310
2555729771500: system.switch_cpus: Raw Gem5 Running in Cycle:        48200000, Inst:        23955826
2555779771500: system.switch_cpus: Raw Gem5 Running in Cycle:        48300000, Inst:        24005394
2555829771500: system.switch_cpus: Raw Gem5 Running in Cycle:        48400000, Inst:        24055241
2555879771500: system.switch_cpus: Raw Gem5 Running in Cycle:        48500000, Inst:        24105073
2555929771500: system.switch_cpus: Raw Gem5 Running in Cycle:        48600000, Inst:        24154015
2555979771500: system.switch_cpus: Raw Gem5 Running in Cycle:        48700000, Inst:        24203080
2556029771500: system.switch_cpus: Raw Gem5 Running in Cycle:        48800000, Inst:        24253340
2556079771500: system.switch_cpus: Raw Gem5 Running in Cycle:        48900000, Inst:        24302885
2556129771500: system.switch_cpus: Raw Gem5 Running in Cycle:        49000000, Inst:        24352547
2556179771500: system.switch_cpus: Raw Gem5 Running in Cycle:        49100000, Inst:        24401966
2556229771500: system.switch_cpus: Raw Gem5 Running in Cycle:        49200000, Inst:        24451860
2556279771500: system.switch_cpus: Raw Gem5 Running in Cycle:        49300000, Inst:        24500338
2556329771500: system.switch_cpus: Raw Gem5 Running in Cycle:        49400000, Inst:        24549874
2556379771500: system.switch_cpus: Raw Gem5 Running in Cycle:        49500000, Inst:        24599400
2556429771500: system.switch_cpus: Raw Gem5 Running in Cycle:        49600000, Inst:        24648004
2556479771500: system.switch_cpus: Raw Gem5 Running in Cycle:        49700000, Inst:        24697546
2556529771500: system.switch_cpus: Raw Gem5 Running in Cycle:        49800000, Inst:        24746331
2556579771500: system.switch_cpus: Raw Gem5 Running in Cycle:        49900000, Inst:        24795873
2556629771500: system.switch_cpus: Raw Gem5 Running in Cycle:        50000000, Inst:        24844978
2556679771500: system.switch_cpus: Raw Gem5 Running in Cycle:        50100000, Inst:        24894873
2556729771500: system.switch_cpus: Raw Gem5 Running in Cycle:        50200000, Inst:        24944415
2556779771500: system.switch_cpus: Raw Gem5 Running in Cycle:        50300000, Inst:        24993921
2556829771500: system.switch_cpus: Raw Gem5 Running in Cycle:        50400000, Inst:        25042284
2556879771500: system.switch_cpus: Raw Gem5 Running in Cycle:        50500000, Inst:        25091331
2556929771500: system.switch_cpus: Raw Gem5 Running in Cycle:        50600000, Inst:        25140429
2556979771500: system.switch_cpus: Raw Gem5 Running in Cycle:        50700000, Inst:        25189256
2557029771500: system.switch_cpus: Raw Gem5 Running in Cycle:        50800000, Inst:        25238437
2557079771500: system.switch_cpus: Raw Gem5 Running in Cycle:        50900000, Inst:        25287759
2557129771500: system.switch_cpus: Raw Gem5 Running in Cycle:        51000000, Inst:        25336991
2557179771500: system.switch_cpus: Raw Gem5 Running in Cycle:        51100000, Inst:        25386376
2557229771500: system.switch_cpus: Raw Gem5 Running in Cycle:        51200000, Inst:        25435567
2557279771500: system.switch_cpus: Raw Gem5 Running in Cycle:        51300000, Inst:        25484794
2557329771500: system.switch_cpus: Raw Gem5 Running in Cycle:        51400000, Inst:        25533540
2557379771500: system.switch_cpus: Raw Gem5 Running in Cycle:        51500000, Inst:        25583082
2557429771500: system.switch_cpus: Raw Gem5 Running in Cycle:        51600000, Inst:        25632977
2557479771500: system.switch_cpus: Raw Gem5 Running in Cycle:        51700000, Inst:        25681804
2557529771500: system.switch_cpus: Raw Gem5 Running in Cycle:        51800000, Inst:        25731107
2557579771500: system.switch_cpus: Raw Gem5 Running in Cycle:        51900000, Inst:        25780207
2557629771500: system.switch_cpus: Raw Gem5 Running in Cycle:        52000000, Inst:        25829096
2557679771500: system.switch_cpus: Raw Gem5 Running in Cycle:        52100000, Inst:        25877855
2557729771500: system.switch_cpus: Raw Gem5 Running in Cycle:        52200000, Inst:        25927357
2557779771500: system.switch_cpus: Raw Gem5 Running in Cycle:        52300000, Inst:        25977617
2557829771500: system.switch_cpus: Raw Gem5 Running in Cycle:        52400000, Inst:        26026441
2557879771500: system.switch_cpus: Raw Gem5 Running in Cycle:        52500000, Inst:        26075986
2557929771500: system.switch_cpus: Raw Gem5 Running in Cycle:        52600000, Inst:        26125166
2557979771500: system.switch_cpus: Raw Gem5 Running in Cycle:        52700000, Inst:        26174472
2558029771500: system.switch_cpus: Raw Gem5 Running in Cycle:        52800000, Inst:        26223532
2558079771500: system.switch_cpus: Raw Gem5 Running in Cycle:        52900000, Inst:        26272920
2558129771500: system.switch_cpus: Raw Gem5 Running in Cycle:        53000000, Inst:        26322975
2558179771500: system.switch_cpus: Raw Gem5 Running in Cycle:        53100000, Inst:        26372265
2558229771500: system.switch_cpus: Raw Gem5 Running in Cycle:        53200000, Inst:        26421703
2558279771500: system.switch_cpus: Raw Gem5 Running in Cycle:        53300000, Inst:        26471242
2558329771500: system.switch_cpus: Raw Gem5 Running in Cycle:        53400000, Inst:        26520784
2558379771500: system.switch_cpus: Raw Gem5 Running in Cycle:        53500000, Inst:        26570688
2558429771500: system.switch_cpus: Raw Gem5 Running in Cycle:        53600000, Inst:        26619908
2558479771500: system.switch_cpus: Raw Gem5 Running in Cycle:        53700000, Inst:        26669772
2558529771500: system.switch_cpus: Raw Gem5 Running in Cycle:        53800000, Inst:        26718952
2558579771500: system.switch_cpus: Raw Gem5 Running in Cycle:        53900000, Inst:        26768853
2558629771500: system.switch_cpus: Raw Gem5 Running in Cycle:        54000000, Inst:        26818036
2558679771500: system.switch_cpus: Raw Gem5 Running in Cycle:        54100000, Inst:        26867870
2558729771500: system.switch_cpus: Raw Gem5 Running in Cycle:        54200000, Inst:        26917126
2558779771500: system.switch_cpus: Raw Gem5 Running in Cycle:        54300000, Inst:        26965944
2558829771500: system.switch_cpus: Raw Gem5 Running in Cycle:        54400000, Inst:        27016556
2558879771500: system.switch_cpus: Raw Gem5 Running in Cycle:        54500000, Inst:        27065028
2558929771500: system.switch_cpus: Raw Gem5 Running in Cycle:        54600000, Inst:        27114610
2558979771500: system.switch_cpus: Raw Gem5 Running in Cycle:        54700000, Inst:        27163756
2559029771500: system.switch_cpus: Raw Gem5 Running in Cycle:        54800000, Inst:        27212936
2559079771500: system.switch_cpus: Raw Gem5 Running in Cycle:        54900000, Inst:        27262159
2559129771500: system.switch_cpus: Raw Gem5 Running in Cycle:        55000000, Inst:        27311305
2559179771500: system.switch_cpus: Raw Gem5 Running in Cycle:        55100000, Inst:        27360844
2559229771500: system.switch_cpus: Raw Gem5 Running in Cycle:        55200000, Inst:        27409393
2559279771500: system.switch_cpus: Raw Gem5 Running in Cycle:        55300000, Inst:        27458844
2559329771500: system.switch_cpus: Raw Gem5 Running in Cycle:        55400000, Inst:        27507675
2559379771500: system.switch_cpus: Raw Gem5 Running in Cycle:        55500000, Inst:        27557218
2559429771500: system.switch_cpus: Raw Gem5 Running in Cycle:        55600000, Inst:        27606400
2559479771500: system.switch_cpus: Raw Gem5 Running in Cycle:        55700000, Inst:        27654865
2559529771500: system.switch_cpus: Raw Gem5 Running in Cycle:        55800000, Inst:        27705125
2559579771500: system.switch_cpus: Raw Gem5 Running in Cycle:        55900000, Inst:        27754667
2559629771500: system.switch_cpus: Raw Gem5 Running in Cycle:        56000000, Inst:        27803575
2559679771500: system.switch_cpus: Raw Gem5 Running in Cycle:        56100000, Inst:        27852714
2559729771500: system.switch_cpus: Raw Gem5 Running in Cycle:        56200000, Inst:        27901941
2559780484000: system.switch_cpus: Raw Gem5 Running in Cycle:        56300000, Inst:        27973415
2559830484000: system.switch_cpus: Raw Gem5 Running in Cycle:        56400000, Inst:        28067483
2559880484000: system.switch_cpus: Raw Gem5 Running in Cycle:        56500000, Inst:        28144999
2559930484000: system.switch_cpus: Raw Gem5 Running in Cycle:        56600000, Inst:        28240647
2559980484000: system.switch_cpus: Raw Gem5 Running in Cycle:        56700000, Inst:        28331367
2560030484000: system.switch_cpus: Raw Gem5 Running in Cycle:        56800000, Inst:        28423655
2560080484000: system.switch_cpus: Raw Gem5 Running in Cycle:        56900000, Inst:        28515943
2560130484000: system.switch_cpus: Raw Gem5 Running in Cycle:        57000000, Inst:        28594567
2560180484000: system.switch_cpus: Raw Gem5 Running in Cycle:        57100000, Inst:        28687096
2560230484000: system.switch_cpus: Raw Gem5 Running in Cycle:        57200000, Inst:        28780263
2560280484000: system.switch_cpus: Raw Gem5 Running in Cycle:        57300000, Inst:        28871879
2560330484000: system.switch_cpus: Raw Gem5 Running in Cycle:        57400000, Inst:        28964615
2560380484000: system.switch_cpus: Raw Gem5 Running in Cycle:        57500000, Inst:        29043911
2560430484000: system.switch_cpus: Raw Gem5 Running in Cycle:        57600000, Inst:        29134631
2560480484000: system.switch_cpus: Raw Gem5 Running in Cycle:        57700000, Inst:        29227815
2560530484000: system.switch_cpus: Raw Gem5 Running in Cycle:        57800000, Inst:        29319431
2560580484000: system.switch_cpus: Raw Gem5 Running in Cycle:        57900000, Inst:        29413735
2560630484000: system.switch_cpus: Raw Gem5 Running in Cycle:        58000000, Inst:        29494151
2560680484000: system.switch_cpus: Raw Gem5 Running in Cycle:        58100000, Inst:        29586652
2560730484000: system.switch_cpus: Raw Gem5 Running in Cycle:        58200000, Inst:        29679847
2560780484000: system.switch_cpus: Raw Gem5 Running in Cycle:        58300000, Inst:        29772807
2560830484000: system.switch_cpus: Raw Gem5 Running in Cycle:        58400000, Inst:        29863252
2560880484000: system.switch_cpus: Raw Gem5 Running in Cycle:        58500000, Inst:        29944391
2560930484000: system.switch_cpus: Raw Gem5 Running in Cycle:        58600000, Inst:        30034439
2560980484000: system.switch_cpus: Raw Gem5 Running in Cycle:        58700000, Inst:        30128071
2561030484000: system.switch_cpus: Raw Gem5 Running in Cycle:        58800000, Inst:        30202476
2561080484000: system.switch_cpus: Raw Gem5 Running in Cycle:        58900000, Inst:        30258672
2561130484000: system.switch_cpus: Raw Gem5 Running in Cycle:        59000000, Inst:        30315255
2561180484000: system.switch_cpus: Raw Gem5 Running in Cycle:        59100000, Inst:        30370101
2561230484000: system.switch_cpus: Raw Gem5 Running in Cycle:        59200000, Inst:        30427523
2561280484000: system.switch_cpus: Raw Gem5 Running in Cycle:        59300000, Inst:        30482513
2561330484000: system.switch_cpus: Raw Gem5 Running in Cycle:        59400000, Inst:        30539712
2561380484000: system.switch_cpus: Raw Gem5 Running in Cycle:        59500000, Inst:        30599005
2561430484000: system.switch_cpus: Raw Gem5 Running in Cycle:        59600000, Inst:        30655211
2561480484000: system.switch_cpus: Raw Gem5 Running in Cycle:        59700000, Inst:        30713700
2561530484000: system.switch_cpus: Raw Gem5 Running in Cycle:        59800000, Inst:        30772054
2561580484000: system.switch_cpus: Raw Gem5 Running in Cycle:        59900000, Inst:        30829209
2561630484000: system.switch_cpus: Raw Gem5 Running in Cycle:        60000000, Inst:        30886614
2561680484000: system.switch_cpus: Raw Gem5 Running in Cycle:        60100000, Inst:        30943894
2561730484000: system.switch_cpus: Raw Gem5 Running in Cycle:        60200000, Inst:        31000873
2561780484000: system.switch_cpus: Raw Gem5 Running in Cycle:        60300000, Inst:        31057022
2561830484000: system.switch_cpus: Raw Gem5 Running in Cycle:        60400000, Inst:        31113338
2561880484000: system.switch_cpus: Raw Gem5 Running in Cycle:        60500000, Inst:        31172379
2561930484000: system.switch_cpus: Raw Gem5 Running in Cycle:        60600000, Inst:        31230733
2561980484000: system.switch_cpus: Raw Gem5 Running in Cycle:        60700000, Inst:        31288729
2562030484000: system.switch_cpus: Raw Gem5 Running in Cycle:        60800000, Inst:        31344753
2562080484000: system.switch_cpus: Raw Gem5 Running in Cycle:        60900000, Inst:        31400221
2562130484000: system.switch_cpus: Raw Gem5 Running in Cycle:        61000000, Inst:        31456908
2562180484000: system.switch_cpus: Raw Gem5 Running in Cycle:        61100000, Inst:        31512398
2562230484000: system.switch_cpus: Raw Gem5 Running in Cycle:        61200000, Inst:        31568604
2562280484000: system.switch_cpus: Raw Gem5 Running in Cycle:        61300000, Inst:        31625607
2562330484000: system.switch_cpus: Raw Gem5 Running in Cycle:        61400000, Inst:        31685545
2562380484000: system.switch_cpus: Raw Gem5 Running in Cycle:        61500000, Inst:        31744105
2562430484000: system.switch_cpus: Raw Gem5 Running in Cycle:        61600000, Inst:        31802817
2562480484000: system.switch_cpus: Raw Gem5 Running in Cycle:        61700000, Inst:        31858307
2562530484000: system.switch_cpus: Raw Gem5 Running in Cycle:        61800000, Inst:        31916580
2562580484000: system.switch_cpus: Raw Gem5 Running in Cycle:        61900000, Inst:        31973941
2562630484000: system.switch_cpus: Raw Gem5 Running in Cycle:        62000000, Inst:        32029573
2562680484000: system.switch_cpus: Raw Gem5 Running in Cycle:        62100000, Inst:        32086630
2562730484000: system.switch_cpus: Raw Gem5 Running in Cycle:        62200000, Inst:        32144139
2562780484000: system.switch_cpus: Raw Gem5 Running in Cycle:        62300000, Inst:        32203328
2562830484000: system.switch_cpus: Raw Gem5 Running in Cycle:        62400000, Inst:        32259051
2562880484000: system.switch_cpus: Raw Gem5 Running in Cycle:        62500000, Inst:        32317263
2562930484000: system.switch_cpus: Raw Gem5 Running in Cycle:        62600000, Inst:        32374901
2562980484000: system.switch_cpus: Raw Gem5 Running in Cycle:        62700000, Inst:        32430749
2563030484000: system.switch_cpus: Raw Gem5 Running in Cycle:        62800000, Inst:        32487590
2563080484000: system.switch_cpus: Raw Gem5 Running in Cycle:        62900000, Inst:        32544144
2563130484000: system.switch_cpus: Raw Gem5 Running in Cycle:        63000000, Inst:        32599725
2563180484000: system.switch_cpus: Raw Gem5 Running in Cycle:        63100000, Inst:        32655847
2563230484000: system.switch_cpus: Raw Gem5 Running in Cycle:        63200000, Inst:        32715022
2563280484000: system.switch_cpus: Raw Gem5 Running in Cycle:        63300000, Inst:        32773632
2563330484000: system.switch_cpus: Raw Gem5 Running in Cycle:        63400000, Inst:        32830939
2563380484000: system.switch_cpus: Raw Gem5 Running in Cycle:        63500000, Inst:        32888773
2563430484000: system.switch_cpus: Raw Gem5 Running in Cycle:        63600000, Inst:        32946901
2563480484000: system.switch_cpus: Raw Gem5 Running in Cycle:        63700000, Inst:        33002425
2563530484000: system.switch_cpus: Raw Gem5 Running in Cycle:        63800000, Inst:        33057526
2563580484000: system.switch_cpus: Raw Gem5 Running in Cycle:        63900000, Inst:        33114080
2563630484000: system.switch_cpus: Raw Gem5 Running in Cycle:        64000000, Inst:        33173876
2563680484000: system.switch_cpus: Raw Gem5 Running in Cycle:        64100000, Inst:        33229366
2563730484000: system.switch_cpus: Raw Gem5 Running in Cycle:        64200000, Inst:        33287359
2563780484000: system.switch_cpus: Raw Gem5 Running in Cycle:        64300000, Inst:        33345797
2563830484000: system.switch_cpus: Raw Gem5 Running in Cycle:        64400000, Inst:        33402638
2563880484000: system.switch_cpus: Raw Gem5 Running in Cycle:        64500000, Inst:        33459793
2563930484000: system.switch_cpus: Raw Gem5 Running in Cycle:        64600000, Inst:        33515047
2563980484000: system.switch_cpus: Raw Gem5 Running in Cycle:        64700000, Inst:        33571979
2564030484000: system.switch_cpus: Raw Gem5 Running in Cycle:        64800000, Inst:        33628536
2564080484000: system.switch_cpus: Raw Gem5 Running in Cycle:        64900000, Inst:        33684742
2564130484000: system.switch_cpus: Raw Gem5 Running in Cycle:        65000000, Inst:        33743329
2564180484000: system.switch_cpus: Raw Gem5 Running in Cycle:        65100000, Inst:        33799525
2564230484000: system.switch_cpus: Raw Gem5 Running in Cycle:        65200000, Inst:        33857379
2564280484000: system.switch_cpus: Raw Gem5 Running in Cycle:        65300000, Inst:        33915294
2564330484000: system.switch_cpus: Raw Gem5 Running in Cycle:        65400000, Inst:        33972213
2564380484000: system.switch_cpus: Raw Gem5 Running in Cycle:        65500000, Inst:        34028651
2564430484000: system.switch_cpus: Raw Gem5 Running in Cycle:        65600000, Inst:        34084499
2564480484000: system.switch_cpus: Raw Gem5 Running in Cycle:        65700000, Inst:        34144363
2564530484000: system.switch_cpus: Raw Gem5 Running in Cycle:        65800000, Inst:        34200485
2564580484000: system.switch_cpus: Raw Gem5 Running in Cycle:        65900000, Inst:        34258339
2564630484000: system.switch_cpus: Raw Gem5 Running in Cycle:        66000000, Inst:        34317915
2564680484000: system.switch_cpus: Raw Gem5 Running in Cycle:        66100000, Inst:        34376285
2564730484000: system.switch_cpus: Raw Gem5 Running in Cycle:        66200000, Inst:        34433430
2564780484000: system.switch_cpus: Raw Gem5 Running in Cycle:        66300000, Inst:        34490600
2564830484000: system.switch_cpus: Raw Gem5 Running in Cycle:        66400000, Inst:        34547522
2564880484000: system.switch_cpus: Raw Gem5 Running in Cycle:        66500000, Inst:        34602735
2564930484000: system.switch_cpus: Raw Gem5 Running in Cycle:        66600000, Inst:        34660640
2564980484000: system.switch_cpus: Raw Gem5 Running in Cycle:        66700000, Inst:        34716579
2565030484000: system.switch_cpus: Raw Gem5 Running in Cycle:        66800000, Inst:        34773062
2565080484000: system.switch_cpus: Raw Gem5 Running in Cycle:        66900000, Inst:        34832487
2565130484000: system.switch_cpus: Raw Gem5 Running in Cycle:        67000000, Inst:        34892141
2565180484000: system.switch_cpus: Raw Gem5 Running in Cycle:        67100000, Inst:        34949198
2565230484000: system.switch_cpus: Raw Gem5 Running in Cycle:        67200000, Inst:        35005627
2565280484000: system.switch_cpus: Raw Gem5 Running in Cycle:        67300000, Inst:        35063758
2565330484000: system.switch_cpus: Raw Gem5 Running in Cycle:        67400000, Inst:        35122828
2565380484000: system.switch_cpus: Raw Gem5 Running in Cycle:        67500000, Inst:        35181621
2565430484000: system.switch_cpus: Raw Gem5 Running in Cycle:        67600000, Inst:        35242481
2565480484000: system.switch_cpus: Raw Gem5 Running in Cycle:        67700000, Inst:        35301828
2565530484000: system.switch_cpus: Raw Gem5 Running in Cycle:        67800000, Inst:        35362195
2565580484000: system.switch_cpus: Raw Gem5 Running in Cycle:        67900000, Inst:        35421481
2565630484000: system.switch_cpus: Raw Gem5 Running in Cycle:        68000000, Inst:        35480246
2565680484000: system.switch_cpus: Raw Gem5 Running in Cycle:        68100000, Inst:        35539979
2565730484000: system.switch_cpus: Raw Gem5 Running in Cycle:        68200000, Inst:        35598843
2565780484000: system.switch_cpus: Raw Gem5 Running in Cycle:        68300000, Inst:        35658261
2565830484000: system.switch_cpus: Raw Gem5 Running in Cycle:        68400000, Inst:        35718182
2565880484000: system.switch_cpus: Raw Gem5 Running in Cycle:        68500000, Inst:        35778407
2565930484000: system.switch_cpus: Raw Gem5 Running in Cycle:        68600000, Inst:        35838699
2565980484000: system.switch_cpus: Raw Gem5 Running in Cycle:        68700000, Inst:        35897405
2566030484000: system.switch_cpus: Raw Gem5 Running in Cycle:        68800000, Inst:        35956843
2566080484000: system.switch_cpus: Raw Gem5 Running in Cycle:        68900000, Inst:        36016477
2566130484000: system.switch_cpus: Raw Gem5 Running in Cycle:        69000000, Inst:        36075456
2566180484000: system.switch_cpus: Raw Gem5 Running in Cycle:        69100000, Inst:        36133901
2566230484000: system.switch_cpus: Raw Gem5 Running in Cycle:        69200000, Inst:        36193835
2566280484000: system.switch_cpus: Raw Gem5 Running in Cycle:        69300000, Inst:        36252399
2566330484000: system.switch_cpus: Raw Gem5 Running in Cycle:        69400000, Inst:        36313617
2566380484000: system.switch_cpus: Raw Gem5 Running in Cycle:        69500000, Inst:        36372316
2566430484000: system.switch_cpus: Raw Gem5 Running in Cycle:        69600000, Inst:        36431505
2566480484000: system.switch_cpus: Raw Gem5 Running in Cycle:        69700000, Inst:        36491185
2566530484000: system.switch_cpus: Raw Gem5 Running in Cycle:        69800000, Inst:        36550174
2566580484000: system.switch_cpus: Raw Gem5 Running in Cycle:        69900000, Inst:        36610547
2566630484000: system.switch_cpus: Raw Gem5 Running in Cycle:        70000000, Inst:        36669452
2566680484000: system.switch_cpus: Raw Gem5 Running in Cycle:        70100000, Inst:        36730245
2566730484000: system.switch_cpus: Raw Gem5 Running in Cycle:        70200000, Inst:        36789931
2566780484000: system.switch_cpus: Raw Gem5 Running in Cycle:        70300000, Inst:        36848736
2566830484000: system.switch_cpus: Raw Gem5 Running in Cycle:        70400000, Inst:        36908880
2566880484000: system.switch_cpus: Raw Gem5 Running in Cycle:        70500000, Inst:        36966609
2566930484000: system.switch_cpus: Raw Gem5 Running in Cycle:        70600000, Inst:        37027030
2566980484000: system.switch_cpus: Raw Gem5 Running in Cycle:        70700000, Inst:        37086956
2567030484000: system.switch_cpus: Raw Gem5 Running in Cycle:        70800000, Inst:        37146835
2567080484000: system.switch_cpus: Raw Gem5 Running in Cycle:        70900000, Inst:        37206736
2567130484000: system.switch_cpus: Raw Gem5 Running in Cycle:        71000000, Inst:        37265602
2567180484000: system.switch_cpus: Raw Gem5 Running in Cycle:        71100000, Inst:        37326318
2567230484000: system.switch_cpus: Raw Gem5 Running in Cycle:        71200000, Inst:        37386572
2567280484000: system.switch_cpus: Raw Gem5 Running in Cycle:        71300000, Inst:        37445532
2567330484000: system.switch_cpus: Raw Gem5 Running in Cycle:        71400000, Inst:        37504925
2567380484000: system.switch_cpus: Raw Gem5 Running in Cycle:        71500000, Inst:        37564736
2567430484000: system.switch_cpus: Raw Gem5 Running in Cycle:        71600000, Inst:        37622971
2567480484000: system.switch_cpus: Raw Gem5 Running in Cycle:        71700000, Inst:        37682886
2567530484000: system.switch_cpus: Raw Gem5 Running in Cycle:        71800000, Inst:        37742304
2567580484000: system.switch_cpus: Raw Gem5 Running in Cycle:        71900000, Inst:        37802445
2567630484000: system.switch_cpus: Raw Gem5 Running in Cycle:        72000000, Inst:        37861610
2567680484000: system.switch_cpus: Raw Gem5 Running in Cycle:        72100000, Inst:        37921395
2567730484000: system.switch_cpus: Raw Gem5 Running in Cycle:        72200000, Inst:        37981691
2567780484000: system.switch_cpus: Raw Gem5 Running in Cycle:        72300000, Inst:        38040403
2567830484000: system.switch_cpus: Raw Gem5 Running in Cycle:        72400000, Inst:        38100288
2567880484000: system.switch_cpus: Raw Gem5 Running in Cycle:        72500000, Inst:        38159965
2567930484000: system.switch_cpus: Raw Gem5 Running in Cycle:        72600000, Inst:        38219557
2567980484000: system.switch_cpus: Raw Gem5 Running in Cycle:        72700000, Inst:        38279179
2568030484000: system.switch_cpus: Raw Gem5 Running in Cycle:        72800000, Inst:        38338033
2568080484000: system.switch_cpus: Raw Gem5 Running in Cycle:        72900000, Inst:        38398160
2568130484000: system.switch_cpus: Raw Gem5 Running in Cycle:        73000000, Inst:        38456963
2568180484000: system.switch_cpus: Raw Gem5 Running in Cycle:        73100000, Inst:        38516533
2568230484000: system.switch_cpus: Raw Gem5 Running in Cycle:        73200000, Inst:        38576325
2568280484000: system.switch_cpus: Raw Gem5 Running in Cycle:        73300000, Inst:        38636115
2568330484000: system.switch_cpus: Raw Gem5 Running in Cycle:        73400000, Inst:        38696016
2568380484000: system.switch_cpus: Raw Gem5 Running in Cycle:        73500000, Inst:        38754482
2568430484000: system.switch_cpus: Raw Gem5 Running in Cycle:        73600000, Inst:        38812957
2568480484000: system.switch_cpus: Raw Gem5 Running in Cycle:        73700000, Inst:        38873101
2568530484000: system.switch_cpus: Raw Gem5 Running in Cycle:        73800000, Inst:        38932539
2568580484000: system.switch_cpus: Raw Gem5 Running in Cycle:        73900000, Inst:        38991120
2568630484000: system.switch_cpus: Raw Gem5 Running in Cycle:        74000000, Inst:        39051063
2568680484000: system.switch_cpus: Raw Gem5 Running in Cycle:        74100000, Inst:        39109955
2568730484000: system.switch_cpus: Raw Gem5 Running in Cycle:        74200000, Inst:        39169741
2568780484000: system.switch_cpus: Raw Gem5 Running in Cycle:        74300000, Inst:        39229446
2568830484000: system.switch_cpus: Raw Gem5 Running in Cycle:        74400000, Inst:        39288864
2568880484000: system.switch_cpus: Raw Gem5 Running in Cycle:        74500000, Inst:        39348302
2568930484000: system.switch_cpus: Raw Gem5 Running in Cycle:        74600000, Inst:        39407014
2568980484000: system.switch_cpus: Raw Gem5 Running in Cycle:        74700000, Inst:        39466827
2569030484000: system.switch_cpus: Raw Gem5 Running in Cycle:        74800000, Inst:        39526466
2569080484000: system.switch_cpus: Raw Gem5 Running in Cycle:        74900000, Inst:        39586124
2569130484000: system.switch_cpus: Raw Gem5 Running in Cycle:        75000000, Inst:        39645881
2569180484000: system.switch_cpus: Raw Gem5 Running in Cycle:        75100000, Inst:        39704870
2569230484000: system.switch_cpus: Raw Gem5 Running in Cycle:        75200000, Inst:        39765014
2569280484000: system.switch_cpus: Raw Gem5 Running in Cycle:        75300000, Inst:        39823726
2569330484000: system.switch_cpus: Raw Gem5 Running in Cycle:        75400000, Inst:        39883512
2569380484000: system.switch_cpus: Raw Gem5 Running in Cycle:        75500000, Inst:        39942305
2569430484000: system.switch_cpus: Raw Gem5 Running in Cycle:        75600000, Inst:        40001652
2569480484000: system.switch_cpus: Raw Gem5 Running in Cycle:        75700000, Inst:        40062144
2569530484000: system.switch_cpus: Raw Gem5 Running in Cycle:        75800000, Inst:        40121305
2569580484000: system.switch_cpus: Raw Gem5 Running in Cycle:        75900000, Inst:        40181807
[...]
2617132831500: system.switch_cpus: Raw Gem5 Running in Cycle:       171000000, Inst:        93117186
2617182831500: system.switch_cpus: Raw Gem5 Running in Cycle:       171100000, Inst:        93152251
2617232831500: system.switch_cpus: Raw Gem5 Running in Cycle:       171200000, Inst:        93187781
2617282831500: system.switch_cpus: Raw Gem5 Running in Cycle:       171300000, Inst:        93222749
2617332831500: system.switch_cpus: Raw Gem5 Running in Cycle:       171400000, Inst:        93258557
2617382831500: system.switch_cpus: Raw Gem5 Running in Cycle:       171500000, Inst:        93293454
2617432831500: system.switch_cpus: Raw Gem5 Running in Cycle:       171600000, Inst:        93328984
2617482831500: system.switch_cpus: Raw Gem5 Running in Cycle:       171700000, Inst:        93364054
2617532831500: system.switch_cpus: Raw Gem5 Running in Cycle:       171800000, Inst:        93399413
2617582831500: system.switch_cpus: Raw Gem5 Running in Cycle:       171900000, Inst:        93434695
2617632831500: system.switch_cpus: Raw Gem5 Running in Cycle:       172000000, Inst:        93469504
2617682831500: system.switch_cpus: Raw Gem5 Running in Cycle:       172100000, Inst:        93505053
2617732831500: system.switch_cpus: Raw Gem5 Running in Cycle:       172200000, Inst:        93540460
2617782831500: system.switch_cpus: Raw Gem5 Running in Cycle:       172300000, Inst:        93575059
2617832831500: system.switch_cpus: Raw Gem5 Running in Cycle:       172400000, Inst:        93610255
2617882831500: system.switch_cpus: Raw Gem5 Running in Cycle:       172500000, Inst:        93646251
2617932831500: system.switch_cpus: Raw Gem5 Running in Cycle:       172600000, Inst:        93681789
2617982831500: system.switch_cpus: Raw Gem5 Running in Cycle:       172700000, Inst:        93716826
2618032831500: system.switch_cpus: Raw Gem5 Running in Cycle:       172800000, Inst:        93752224
2618082831500: system.switch_cpus: Raw Gem5 Running in Cycle:       172900000, Inst:        93787152
2618132831500: system.switch_cpus: Raw Gem5 Running in Cycle:       173000000, Inst:        93822466
2618182831500: system.switch_cpus: Raw Gem5 Running in Cycle:       173100000, Inst:        93857426
2618232831500: system.switch_cpus: Raw Gem5 Running in Cycle:       173200000, Inst:        93892386
2618282831500: system.switch_cpus: Raw Gem5 Running in Cycle:       173300000, Inst:        93927555
2618332831500: system.switch_cpus: Raw Gem5 Running in Cycle:       173400000, Inst:        93962744
2618382831500: system.switch_cpus: Raw Gem5 Running in Cycle:       173500000, Inst:        93998026
2618432831500: system.switch_cpus: Raw Gem5 Running in Cycle:       173600000, Inst:        94033091
2618482831500: system.switch_cpus: Raw Gem5 Running in Cycle:       173700000, Inst:        94068274
2618532831500: system.switch_cpus: Raw Gem5 Running in Cycle:       173800000, Inst:        94103666
2618582831500: system.switch_cpus: Raw Gem5 Running in Cycle:       173900000, Inst:        94138731
2618632831500: system.switch_cpus: Raw Gem5 Running in Cycle:       174000000, Inst:        94173881
2618682831500: system.switch_cpus: Raw Gem5 Running in Cycle:       174100000, Inst:        94209064
2618732831500: system.switch_cpus: Raw Gem5 Running in Cycle:       174200000, Inst:        94244224
2618782831500: system.switch_cpus: Raw Gem5 Running in Cycle:       174300000, Inst:        94279438
2618832831500: system.switch_cpus: Raw Gem5 Running in Cycle:       174400000, Inst:        94314588
2618882831500: system.switch_cpus: Raw Gem5 Running in Cycle:       174500000, Inst:        94349480
2618932831500: system.switch_cpus: Raw Gem5 Running in Cycle:       174600000, Inst:        94384373
2618982831500: system.switch_cpus: Raw Gem5 Running in Cycle:       174700000, Inst:        94419936
2619032831500: system.switch_cpus: Raw Gem5 Running in Cycle:       174800000, Inst:        94455375
2619082831500: system.switch_cpus: Raw Gem5 Running in Cycle:       174900000, Inst:        94490506
2619132831500: system.switch_cpus: Raw Gem5 Running in Cycle:       175000000, Inst:        94525761
2619182831500: system.switch_cpus: Raw Gem5 Running in Cycle:       175100000, Inst:        94560825
2619232831500: system.switch_cpus: Raw Gem5 Running in Cycle:       175200000, Inst:        94596413
2619282831500: system.switch_cpus: Raw Gem5 Running in Cycle:       175300000, Inst:        94631244
2619332831500: system.switch_cpus: Raw Gem5 Running in Cycle:       175400000, Inst:        94666361
2619382831500: system.switch_cpus: Raw Gem5 Running in Cycle:       175500000, Inst:        94701701
2619432831500: system.switch_cpus: Raw Gem5 Running in Cycle:       175600000, Inst:        94737184
2619482831500: system.switch_cpus: Raw Gem5 Running in Cycle:       175700000, Inst:        94772466
2619532831500: system.switch_cpus: Raw Gem5 Running in Cycle:       175800000, Inst:        94807958
2619582831500: system.switch_cpus: Raw Gem5 Running in Cycle:       175900000, Inst:        94843294
2619632831500: system.switch_cpus: Raw Gem5 Running in Cycle:       176000000, Inst:        94878624
2619682831500: system.switch_cpus: Raw Gem5 Running in Cycle:       176100000, Inst:        94913739
2619732831500: system.switch_cpus: Raw Gem5 Running in Cycle:       176200000, Inst:        94949185
2619782831500: system.switch_cpus: Raw Gem5 Running in Cycle:       176300000, Inst:        94984145
2619832831500: system.switch_cpus: Raw Gem5 Running in Cycle:       176400000, Inst:        95019761
2619882831500: system.switch_cpus: Raw Gem5 Running in Cycle:       176500000, Inst:        95054721
2619932831500: system.switch_cpus: Raw Gem5 Running in Cycle:       176600000, Inst:        95090061
2619982831500: system.switch_cpus: Raw Gem5 Running in Cycle:       176700000, Inst:        95125318
2620032831500: system.switch_cpus: Raw Gem5 Running in Cycle:       176800000, Inst:        95160655
2620082831500: system.switch_cpus: Raw Gem5 Running in Cycle:       176900000, Inst:        95195786
2620132831500: system.switch_cpus: Raw Gem5 Running in Cycle:       177000000, Inst:        95230424
2620182831500: system.switch_cpus: Raw Gem5 Running in Cycle:       177100000, Inst:        95265431
2620232831500: system.switch_cpus: Raw Gem5 Running in Cycle:       177200000, Inst:        95300771
2620282831500: system.switch_cpus: Raw Gem5 Running in Cycle:       177300000, Inst:        95336144
2620332831500: system.switch_cpus: Raw Gem5 Running in Cycle:       177400000, Inst:        95371104
2620382831500: system.switch_cpus: Raw Gem5 Running in Cycle:       177500000, Inst:        95406601
2620432831500: system.switch_cpus: Raw Gem5 Running in Cycle:       177600000, Inst:        95441855
2620482831500: system.switch_cpus: Raw Gem5 Running in Cycle:       177700000, Inst:        95477195
2620532831500: system.switch_cpus: Raw Gem5 Running in Cycle:       177800000, Inst:        95512535
2620582831500: system.switch_cpus: Raw Gem5 Running in Cycle:       177900000, Inst:        95547430
2620632831500: system.switch_cpus: Raw Gem5 Running in Cycle:       178000000, Inst:        95583144
2620682831500: system.switch_cpus: Raw Gem5 Running in Cycle:       178100000, Inst:        95617881
2620732831500: system.switch_cpus: Raw Gem5 Running in Cycle:       178200000, Inst:        95652546
2620782831500: system.switch_cpus: Raw Gem5 Running in Cycle:       178300000, Inst:        95687080
2620832831500: system.switch_cpus: Raw Gem5 Running in Cycle:       178400000, Inst:        95722001
2620882831500: system.switch_cpus: Raw Gem5 Running in Cycle:       178500000, Inst:        95757638
2620932831500: system.switch_cpus: Raw Gem5 Running in Cycle:       178600000, Inst:        95792788
2620982831500: system.switch_cpus: Raw Gem5 Running in Cycle:       178700000, Inst:        95827938
2621032831500: system.switch_cpus: Raw Gem5 Running in Cycle:       178800000, Inst:        95863361
2621082831500: system.switch_cpus: Raw Gem5 Running in Cycle:       178900000, Inst:        95898026
2621132831500: system.switch_cpus: Raw Gem5 Running in Cycle:       179000000, Inst:        95933198
2621182831500: system.switch_cpus: Raw Gem5 Running in Cycle:       179100000, Inst:        95968535
2621232831500: system.switch_cpus: Raw Gem5 Running in Cycle:       179200000, Inst:        96003666
2621282831500: system.switch_cpus: Raw Gem5 Running in Cycle:       179300000, Inst:        96038764
2621332831500: system.switch_cpus: Raw Gem5 Running in Cycle:       179400000, Inst:        96073914
2621382831500: system.switch_cpus: Raw Gem5 Running in Cycle:       179500000, Inst:        96109064
2621432831500: system.switch_cpus: Raw Gem5 Running in Cycle:       179600000, Inst:        96143773
2621482831500: system.switch_cpus: Raw Gem5 Running in Cycle:       179700000, Inst:        96179226
2621532831500: system.switch_cpus: Raw Gem5 Running in Cycle:       179800000, Inst:        96214710
2621582831500: system.switch_cpus: Raw Gem5 Running in Cycle:       179900000, Inst:        96250424
2621632831500: system.switch_cpus: Raw Gem5 Running in Cycle:       180000000, Inst:        96285584
2621682831500: system.switch_cpus: Raw Gem5 Running in Cycle:       180100000, Inst:        96319931
2621732831500: system.switch_cpus: Raw Gem5 Running in Cycle:       180200000, Inst:        96355546
2621782831500: system.switch_cpus: Raw Gem5 Running in Cycle:       180300000, Inst:        96390611
2621832831500: system.switch_cpus: Raw Gem5 Running in Cycle:       180400000, Inst:        96425904
2621882831500: system.switch_cpus: Raw Gem5 Running in Cycle:       180500000, Inst:        96460864
2621932831500: system.switch_cpus: Raw Gem5 Running in Cycle:       180600000, Inst:        96496413
2621982831500: system.switch_cpus: Raw Gem5 Running in Cycle:       180700000, Inst:        96531106
2622032831500: system.switch_cpus: Raw Gem5 Running in Cycle:       180800000, Inst:        96565824
2622082831500: system.switch_cpus: Raw Gem5 Running in Cycle:       180900000, Inst:        96601026
2622132831500: system.switch_cpus: Raw Gem5 Running in Cycle:       181000000, Inst:        96635934
2622182831500: system.switch_cpus: Raw Gem5 Running in Cycle:       181100000, Inst:        96671155
2622232831500: system.switch_cpus: Raw Gem5 Running in Cycle:       181200000, Inst:        96706666
2622282831500: system.switch_cpus: Raw Gem5 Running in Cycle:       181300000, Inst:        96742111
2622332831500: system.switch_cpus: Raw Gem5 Running in Cycle:       181400000, Inst:        96777114
2622382831500: system.switch_cpus: Raw Gem5 Running in Cycle:       181500000, Inst:        96812411
2622432831500: system.switch_cpus: Raw Gem5 Running in Cycle:       181600000, Inst:        96847751
2622482831500: system.switch_cpus: Raw Gem5 Running in Cycle:       181700000, Inst:        96883091
2622532831500: system.switch_cpus: Raw Gem5 Running in Cycle:       181800000, Inst:        96918051
2622582831500: system.switch_cpus: Raw Gem5 Running in Cycle:       181900000, Inst:        96953666
2622632831500: system.switch_cpus: Raw Gem5 Running in Cycle:       182000000, Inst:        96988265
2622682831500: system.switch_cpus: Raw Gem5 Running in Cycle:       182100000, Inst:        97023540
2622732831500: system.switch_cpus: Raw Gem5 Running in Cycle:       182200000, Inst:        97058461
2622782831500: system.switch_cpus: Raw Gem5 Running in Cycle:       182300000, Inst:        97093184
2622832831500: system.switch_cpus: Raw Gem5 Running in Cycle:       182400000, Inst:        97129113
2622882831500: system.switch_cpus: Raw Gem5 Running in Cycle:       182500000, Inst:        97163950
2622932831500: system.switch_cpus: Raw Gem5 Running in Cycle:       182600000, Inst:        97199545
2622982831500: system.switch_cpus: Raw Gem5 Running in Cycle:       182700000, Inst:        97234401
2623032831500: system.switch_cpus: Raw Gem5 Running in Cycle:       182800000, Inst:        97270121
2623082831500: system.switch_cpus: Raw Gem5 Running in Cycle:       182900000, Inst:        97305185
2623132831500: system.switch_cpus: Raw Gem5 Running in Cycle:       183000000, Inst:        97340654
2623182831500: system.switch_cpus: Raw Gem5 Running in Cycle:       183100000, Inst:        97375951
2623232831500: system.switch_cpus: Raw Gem5 Running in Cycle:       183200000, Inst:        97410911
2623282831500: system.switch_cpus: Raw Gem5 Running in Cycle:       183300000, Inst:        97446104
2623332831500: system.switch_cpus: Raw Gem5 Running in Cycle:       183400000, Inst:        97481106
2623382831500: system.switch_cpus: Raw Gem5 Running in Cycle:       183500000, Inst:        97517264
2623432831500: system.switch_cpus: Raw Gem5 Running in Cycle:       183600000, Inst:        97552185
2623482831500: system.switch_cpus: Raw Gem5 Running in Cycle:       183700000, Inst:        97588073
2623532831500: system.switch_cpus: Raw Gem5 Running in Cycle:       183800000, Inst:        97622800
2623582831500: system.switch_cpus: Raw Gem5 Running in Cycle:       183900000, Inst:        97658015
2623632831500: system.switch_cpus: Raw Gem5 Running in Cycle:       184000000, Inst:        97693355
2623682831500: system.switch_cpus: Raw Gem5 Running in Cycle:       184100000, Inst:        97728695
2623732831500: system.switch_cpus: Raw Gem5 Running in Cycle:       184200000, Inst:        97763826
2623782831500: system.switch_cpus: Raw Gem5 Running in Cycle:       184300000, Inst:        97799007
2623832831500: system.switch_cpus: Raw Gem5 Running in Cycle:       184400000, Inst:        97834131
2623882831500: system.switch_cpus: Raw Gem5 Running in Cycle:       184500000, Inst:        97868654
2623932831500: system.switch_cpus: Raw Gem5 Running in Cycle:       184600000, Inst:        97903814
2623982831500: system.switch_cpus: Raw Gem5 Running in Cycle:       184700000, Inst:        97939301
2624032831500: system.switch_cpus: Raw Gem5 Running in Cycle:       184800000, Inst:        97974784
2624082831500: system.switch_cpus: Raw Gem5 Running in Cycle:       184900000, Inst:        98009981
2624132831500: system.switch_cpus: Raw Gem5 Running in Cycle:       185000000, Inst:        98045321
2624182831500: system.switch_cpus: Raw Gem5 Running in Cycle:       185100000, Inst:        98080320
2624232831500: system.switch_cpus: Raw Gem5 Running in Cycle:       185200000, Inst:        98115958
2624282831500: system.switch_cpus: Raw Gem5 Running in Cycle:       185300000, Inst:        98150666
2624332831500: system.switch_cpus: Raw Gem5 Running in Cycle:       185400000, Inst:        98186144
2624382831500: system.switch_cpus: Raw Gem5 Running in Cycle:       185500000, Inst:        98220691
2624432831500: system.switch_cpus: Raw Gem5 Running in Cycle:       185600000, Inst:        98255884
2624482831500: system.switch_cpus: Raw Gem5 Running in Cycle:       185700000, Inst:        98291095
2624532831500: system.switch_cpus: Raw Gem5 Running in Cycle:       185800000, Inst:        98325904
2624582831500: system.switch_cpus: Raw Gem5 Running in Cycle:       185900000, Inst:        98361775
2624632831500: system.switch_cpus: Raw Gem5 Running in Cycle:       186000000, Inst:        98396906
2624682831500: system.switch_cpus: Raw Gem5 Running in Cycle:       186100000, Inst:        98432384
2624732831500: system.switch_cpus: Raw Gem5 Running in Cycle:       186200000, Inst:        98467344
2624782831500: system.switch_cpus: Raw Gem5 Running in Cycle:       186300000, Inst:        98503031
2624832831500: system.switch_cpus: Raw Gem5 Running in Cycle:       186400000, Inst:        98538181
2624882831500: system.switch_cpus: Raw Gem5 Running in Cycle:       186500000, Inst:        98573284
2624932831500: system.switch_cpus: Raw Gem5 Running in Cycle:       186600000, Inst:        98608671
2624982831500: system.switch_cpus: Raw Gem5 Running in Cycle:       186700000, Inst:        98643664
2625032831500: system.switch_cpus: Raw Gem5 Running in Cycle:       186800000, Inst:        98679014
2625082831500: system.switch_cpus: Raw Gem5 Running in Cycle:       186900000, Inst:        98713997
2625132831500: system.switch_cpus: Raw Gem5 Running in Cycle:       187000000, Inst:        98749114
2625182831500: system.switch_cpus: Raw Gem5 Running in Cycle:       187100000, Inst:        98784264
2625232831500: system.switch_cpus: Raw Gem5 Running in Cycle:       187200000, Inst:        98819466
2625282831500: system.switch_cpus: Raw Gem5 Running in Cycle:       187300000, Inst:        98854721
2625332831500: system.switch_cpus: Raw Gem5 Running in Cycle:       187400000, Inst:        98890294
2625382831500: system.switch_cpus: Raw Gem5 Running in Cycle:       187500000, Inst:        98925505
2625432831500: system.switch_cpus: Raw Gem5 Running in Cycle:       187600000, Inst:        98960774
2625482831500: system.switch_cpus: Raw Gem5 Running in Cycle:       187700000, Inst:        98995891
2625532831500: system.switch_cpus: Raw Gem5 Running in Cycle:       187800000, Inst:        99030894
2625582831500: system.switch_cpus: Raw Gem5 Running in Cycle:       187900000, Inst:        99065973
2625632831500: system.switch_cpus: Raw Gem5 Running in Cycle:       188000000, Inst:        99101294
2625682831500: system.switch_cpus: Raw Gem5 Running in Cycle:       188100000, Inst:        99136785
2625732831500: system.switch_cpus: Raw Gem5 Running in Cycle:       188200000, Inst:        99171864
2625782831500: system.switch_cpus: Raw Gem5 Running in Cycle:       188300000, Inst:        99207655
2625832831500: system.switch_cpus: Raw Gem5 Running in Cycle:       188400000, Inst:        99242734
2625882831500: system.switch_cpus: Raw Gem5 Running in Cycle:       188500000, Inst:        99278264
2625932831500: system.switch_cpus: Raw Gem5 Running in Cycle:       188600000, Inst:        99313678
2625982831500: system.switch_cpus: Raw Gem5 Running in Cycle:       188700000, Inst:        99348828
2626032831500: system.switch_cpus: Raw Gem5 Running in Cycle:       188800000, Inst:        99384094
2626082831500: system.switch_cpus: Raw Gem5 Running in Cycle:       188900000, Inst:        99419401
2626132831500: system.switch_cpus: Raw Gem5 Running in Cycle:       189000000, Inst:        99454741
2626182831500: system.switch_cpus: Raw Gem5 Running in Cycle:       189100000, Inst:        99489701
2626232831500: system.switch_cpus: Raw Gem5 Running in Cycle:       189200000, Inst:        99524894
2626282831500: system.switch_cpus: Raw Gem5 Running in Cycle:       189300000, Inst:        99559915
2626332831500: system.switch_cpus: Raw Gem5 Running in Cycle:       189400000, Inst:        99594724
2626382831500: system.switch_cpus: Raw Gem5 Running in Cycle:       189500000, Inst:        99630028
2626432831500: system.switch_cpus: Raw Gem5 Running in Cycle:       189600000, Inst:        99665680
2626482831500: system.switch_cpus: Raw Gem5 Running in Cycle:       189700000, Inst:        99701066
2626532831500: system.switch_cpus: Raw Gem5 Running in Cycle:       189800000, Inst:        99736511
2626582831500: system.switch_cpus: Raw Gem5 Running in Cycle:       189900000, Inst:        99772264
2626632831500: system.switch_cpus: Raw Gem5 Running in Cycle:       190000000, Inst:        99807691
2626682831500: system.switch_cpus: Raw Gem5 Running in Cycle:       190100000, Inst:        99842760
2626732831500: system.switch_cpus: Raw Gem5 Running in Cycle:       190200000, Inst:        99877871
2626782831500: system.switch_cpus: Raw Gem5 Running in Cycle:       190300000, Inst:        99913106
2626832831500: system.switch_cpus: Raw Gem5 Running in Cycle:       190400000, Inst:        99948314
2626882831500: system.switch_cpus: Raw Gem5 Running in Cycle:       190500000, Inst:        99983174
Exiting @ tick 2626906559000 because a thread reached the max instruction count
end time:(year-mon-day hour-minute-second)19-03-30 22-59-41
