
******************************directory****************************
spec_dir: /home/cuihongwei/experiment/mcpat-gem5-master/spec2006/benchspec/CPU2006
run_dir:  /home/cuihongwei/experiment/mcpat-gem5-master/spec2006/benchspec/CPU2006/437.leslie3d/run/run_base_ref_amd64.0001
gem5_dir: /home/cuihongwei/experiment/experiment-gem5/raw-gem5
gem5_output_dir: /home/cuihongwei/experiment/experiment-gem5/raw-gem5/output/437.leslie3d/alpha-OLD-437.leslie3d-input1-190330-230800
benchmark_output:/home/cuihongwei/experiment/experiment-gem5/raw-gem5/output/437.leslie3d/alpha-OLD-437.leslie3d-input1-190330-230800
checkpoint_dir:/home/cuihongwei/experiment/experiment-gem5/pubs-gem5/output/alpha-437.leslie3d-checkpoint-input1

******************************benchmark****************************
target:     437.leslie3d
executable: leslie3d
args:       leslie3d.in
input:      leslie3d.in
output:     /home/cuihongwei/experiment/experiment-gem5/raw-gem5/output/437.leslie3d/alpha-OLD-437.leslie3d-input1-190330-230800/leslie3d.stdout
errout:     /home/cuihongwei/experiment/experiment-gem5/raw-gem5/output/437.leslie3d/alpha-OLD-437.leslie3d-input1-190330-230800/leslie3d.err

******************************gem5****************************
arch:       /home/cuihongwei/experiment/experiment-gem5/raw-gem5/build/ALPHA/gem5.opt
config:     /home/cuihongwei/experiment/experiment-gem5/raw-gem5/configs/example/se.py
args:       --num-cpus=1 --mem-size=8GB --caches --l1d_size=32kB --l1d_assoc=8 --l1i_size=32kB --l1i_assoc=8 --l2cache --l2_size=2MB --l2_assoc=16 --at-instruction --checkpoint-restore=5000000000 --maxinsts=100000000 --cpu-type=DerivO3CPU
debugFlag:  --debug-flags=ShowRunning

******************************simulation****************************
start time:(year-mon-day hour-minute-second)19-03-30 23-08-00
gem5 Simulator System.  http://gem5.org
gem5 is copyrighted software; use the --copyright option for details.

gem5 compiled Mar 30 2019 20:24:53
gem5 started Mar 30 2019 23:08:00
gem5 executing on mprc-R730, pid 14218
command line: /home/cuihongwei/experiment/experiment-gem5/raw-gem5/build/ALPHA/gem5.opt --outdir=/home/cuihongwei/experiment/experiment-gem5/raw-gem5/output/437.leslie3d/alpha-OLD-437.leslie3d-input1-190330-230800 --debug-flags=ShowRunning /home/cuihongwei/experiment/experiment-gem5/raw-gem5/configs/example/se.py --num-cpus=1 --mem-size=8GB --caches --l1d_size=32kB --l1d_assoc=8 --l1i_size=32kB --l1i_assoc=8 --l2cache --l2_size=2MB --l2_assoc=16 --at-instruction --checkpoint-restore=5000000000 --maxinsts=100000000 --cpu-type=DerivO3CPU --checkpoint-dir=/home/cuihongwei/experiment/experiment-gem5/pubs-gem5/output/alpha-437.leslie3d-checkpoint-input1 --cmd=/home/cuihongwei/experiment/mcpat-gem5-master/spec2006/benchspec/CPU2006/437.leslie3d/run/build_peak_alpha.0001/leslie3d --options=leslie3d.in --output=/home/cuihongwei/experiment/experiment-gem5/raw-gem5/output/437.leslie3d/alpha-OLD-437.leslie3d-input1-190330-230800/leslie3d.stdout --input=leslie3d.in --errout=/home/cuihongwei/experiment/experiment-gem5/raw-gem5/output/437.leslie3d/alpha-OLD-437.leslie3d-input1-190330-230800/leslie3d.err

Global frequency set at 1000000000000 ticks per second
Switch at curTick count:10000
Switched CPUS @ tick 2364019191250
switching cpus
**** REAL SIMULATION ****
2364019192000: system.switch_cpus: Raw Gem5 Running in Cycle:               0, Inst:               0
2364071647500: system.switch_cpus: Raw Gem5 Running in Cycle:          100000, Inst:          109470
2364121647500: system.switch_cpus: Raw Gem5 Running in Cycle:          200000, Inst:          253196
2364171647500: system.switch_cpus: Raw Gem5 Running in Cycle:          300000, Inst:          395671
2364221647500: system.switch_cpus: Raw Gem5 Running in Cycle:          400000, Inst:          550646
2364271647500: system.switch_cpus: Raw Gem5 Running in Cycle:          500000, Inst:          698563
2364321647500: system.switch_cpus: Raw Gem5 Running in Cycle:          600000, Inst:          838824
2364371647500: system.switch_cpus: Raw Gem5 Running in Cycle:          700000, Inst:          982676
2364421647500: system.switch_cpus: Raw Gem5 Running in Cycle:          800000, Inst:         1121729
2364471647500: system.switch_cpus: Raw Gem5 Running in Cycle:          900000, Inst:         1270380
2364521647500: system.switch_cpus: Raw Gem5 Running in Cycle:         1000000, Inst:         1418205
2364571647500: system.switch_cpus: Raw Gem5 Running in Cycle:         1100000, Inst:         1565588
2364621647500: system.switch_cpus: Raw Gem5 Running in Cycle:         1200000, Inst:         1709396
2364671647500: system.switch_cpus: Raw Gem5 Running in Cycle:         1300000, Inst:         1849175
2364721647500: system.switch_cpus: Raw Gem5 Running in Cycle:         1400000, Inst:         1996627
2364771647500: system.switch_cpus: Raw Gem5 Running in Cycle:         1500000, Inst:         2141940
2364821647500: system.switch_cpus: Raw Gem5 Running in Cycle:         1600000, Inst:         2290294
2364871647500: system.switch_cpus: Raw Gem5 Running in Cycle:         1700000, Inst:         2437428
2364921647500: system.switch_cpus: Raw Gem5 Running in Cycle:         1800000, Inst:         2579015
2364971647500: system.switch_cpus: Raw Gem5 Running in Cycle:         1900000, Inst:         2726035
2365021647500: system.switch_cpus: Raw Gem5 Running in Cycle:         2000000, Inst:         2870008
2365071647500: system.switch_cpus: Raw Gem5 Running in Cycle:         2100000, Inst:         3020732
2365121647500: system.switch_cpus: Raw Gem5 Running in Cycle:         2200000, Inst:         3170966
2365171647500: system.switch_cpus: Raw Gem5 Running in Cycle:         2300000, Inst:         3310143
2365221647500: system.switch_cpus: Raw Gem5 Running in Cycle:         2400000, Inst:         3454627
2365271647500: system.switch_cpus: Raw Gem5 Running in Cycle:         2500000, Inst:         3594885
2365321647500: system.switch_cpus: Raw Gem5 Running in Cycle:         2600000, Inst:         3738146
2365371647500: system.switch_cpus: Raw Gem5 Running in Cycle:         2700000, Inst:         3886723
2365421647500: system.switch_cpus: Raw Gem5 Running in Cycle:         2800000, Inst:         4030025
2365471647500: system.switch_cpus: Raw Gem5 Running in Cycle:         2900000, Inst:         4179455
2365521647500: system.switch_cpus: Raw Gem5 Running in Cycle:         3000000, Inst:         4320628
2365571647500: system.switch_cpus: Raw Gem5 Running in Cycle:         3100000, Inst:         4464326
2365621647500: system.switch_cpus: Raw Gem5 Running in Cycle:         3200000, Inst:         4602117
2365671647500: system.switch_cpus: Raw Gem5 Running in Cycle:         3300000, Inst:         4744470
2365721647500: system.switch_cpus: Raw Gem5 Running in Cycle:         3400000, Inst:         4894018
2365771647500: system.switch_cpus: Raw Gem5 Running in Cycle:         3500000, Inst:         5044910
2365821647500: system.switch_cpus: Raw Gem5 Running in Cycle:         3600000, Inst:         5189902
2365871647500: system.switch_cpus: Raw Gem5 Running in Cycle:         3700000, Inst:         5327051
2365921647500: system.switch_cpus: Raw Gem5 Running in Cycle:         3800000, Inst:         5470100
2365972113000: system.switch_cpus: Raw Gem5 Running in Cycle:         3900000, Inst:         5598839
2366022113000: system.switch_cpus: Raw Gem5 Running in Cycle:         4000000, Inst:         5648262
2366072113000: system.switch_cpus: Raw Gem5 Running in Cycle:         4100000, Inst:         5698357
2366122113000: system.switch_cpus: Raw Gem5 Running in Cycle:         4200000, Inst:         5748830
2366172113000: system.switch_cpus: Raw Gem5 Running in Cycle:         4300000, Inst:         5797772
2366222113000: system.switch_cpus: Raw Gem5 Running in Cycle:         4400000, Inst:         5833395
2366272113000: system.switch_cpus: Raw Gem5 Running in Cycle:         4500000, Inst:         5868623
2366322113000: system.switch_cpus: Raw Gem5 Running in Cycle:         4600000, Inst:         5909351
2366372113000: system.switch_cpus: Raw Gem5 Running in Cycle:         4700000, Inst:         5961174
2366422113000: system.switch_cpus: Raw Gem5 Running in Cycle:         4800000, Inst:         6011684
2366472113000: system.switch_cpus: Raw Gem5 Running in Cycle:         4900000, Inst:         6061443
2366522113000: system.switch_cpus: Raw Gem5 Running in Cycle:         5000000, Inst:         6110866
2366572113000: system.switch_cpus: Raw Gem5 Running in Cycle:         5100000, Inst:         6163036
2366622113000: system.switch_cpus: Raw Gem5 Running in Cycle:         5200000, Inst:         6210617
2366672113000: system.switch_cpus: Raw Gem5 Running in Cycle:         5300000, Inst:         6243507
2366722113000: system.switch_cpus: Raw Gem5 Running in Cycle:         5400000, Inst:         6277016
2366772113000: system.switch_cpus: Raw Gem5 Running in Cycle:         5500000, Inst:         6312829
2366822113000: system.switch_cpus: Raw Gem5 Running in Cycle:         5600000, Inst:         6353221
2366872113000: system.switch_cpus: Raw Gem5 Running in Cycle:         5700000, Inst:         6405503
2366922113000: system.switch_cpus: Raw Gem5 Running in Cycle:         5800000, Inst:         6454599
2366972113000: system.switch_cpus: Raw Gem5 Running in Cycle:         5900000, Inst:         6504223
2367022113000: system.switch_cpus: Raw Gem5 Running in Cycle:         6000000, Inst:         6553893
2367072113000: system.switch_cpus: Raw Gem5 Running in Cycle:         6100000, Inst:         6605145
2367125696000: system.switch_cpus: Raw Gem5 Running in Cycle:         6200000, Inst:         6736310
2367175696000: system.switch_cpus: Raw Gem5 Running in Cycle:         6300000, Inst:         6790689
2367225696000: system.switch_cpus: Raw Gem5 Running in Cycle:         6400000, Inst:         6845196
2367275696000: system.switch_cpus: Raw Gem5 Running in Cycle:         6500000, Inst:         6900263
2367325696000: system.switch_cpus: Raw Gem5 Running in Cycle:         6600000, Inst:         6953889
2367375696000: system.switch_cpus: Raw Gem5 Running in Cycle:         6700000, Inst:         7038137
2367425696000: system.switch_cpus: Raw Gem5 Running in Cycle:         6800000, Inst:         7118930
2367475696000: system.switch_cpus: Raw Gem5 Running in Cycle:         6900000, Inst:         7200393
2367525696000: system.switch_cpus: Raw Gem5 Running in Cycle:         7000000, Inst:         7281697
2367575696000: system.switch_cpus: Raw Gem5 Running in Cycle:         7100000, Inst:         7358055
2367625696000: system.switch_cpus: Raw Gem5 Running in Cycle:         7200000, Inst:         7435678
2367675696000: system.switch_cpus: Raw Gem5 Running in Cycle:         7300000, Inst:         7513904
2367725696000: system.switch_cpus: Raw Gem5 Running in Cycle:         7400000, Inst:         7593099
2367775696000: system.switch_cpus: Raw Gem5 Running in Cycle:         7500000, Inst:         7667709
2367825696000: system.switch_cpus: Raw Gem5 Running in Cycle:         7600000, Inst:         7742900
2367875696000: system.switch_cpus: Raw Gem5 Running in Cycle:         7700000, Inst:         7816841
2367925696000: system.switch_cpus: Raw Gem5 Running in Cycle:         7800000, Inst:         7891934
2367975696000: system.switch_cpus: Raw Gem5 Running in Cycle:         7900000, Inst:         7963600
2368025696000: system.switch_cpus: Raw Gem5 Running in Cycle:         8000000, Inst:         8041991
2368075696000: system.switch_cpus: Raw Gem5 Running in Cycle:         8100000, Inst:         8118477
2368125696000: system.switch_cpus: Raw Gem5 Running in Cycle:         8200000, Inst:         8191024
2368175696000: system.switch_cpus: Raw Gem5 Running in Cycle:         8300000, Inst:         8267971
2368225696000: system.switch_cpus: Raw Gem5 Running in Cycle:         8400000, Inst:         8343977
2368275696000: system.switch_cpus: Raw Gem5 Running in Cycle:         8500000, Inst:         8418065
2368325696000: system.switch_cpus: Raw Gem5 Running in Cycle:         8600000, Inst:         8493797
2368375696000: system.switch_cpus: Raw Gem5 Running in Cycle:         8700000, Inst:         8572700
2368425696000: system.switch_cpus: Raw Gem5 Running in Cycle:         8800000, Inst:         8651972
2368475696000: system.switch_cpus: Raw Gem5 Running in Cycle:         8900000, Inst:         8725287
2368525696000: system.switch_cpus: Raw Gem5 Running in Cycle:         9000000, Inst:         8803550
2368575696000: system.switch_cpus: Raw Gem5 Running in Cycle:         9100000, Inst:         8879908
2368625696000: system.switch_cpus: Raw Gem5 Running in Cycle:         9200000, Inst:         8959706
2368675696000: system.switch_cpus: Raw Gem5 Running in Cycle:         9300000, Inst:         9036192
2368725696000: system.switch_cpus: Raw Gem5 Running in Cycle:         9400000, Inst:         9113062
2368775696000: system.switch_cpus: Raw Gem5 Running in Cycle:         9500000, Inst:         9190443
2368825696000: system.switch_cpus: Raw Gem5 Running in Cycle:         9600000, Inst:         9268710
2368875696000: system.switch_cpus: Raw Gem5 Running in Cycle:         9700000, Inst:         9347430
2368925696000: system.switch_cpus: Raw Gem5 Running in Cycle:         9800000, Inst:         9425631
2368975696000: system.switch_cpus: Raw Gem5 Running in Cycle:         9900000, Inst:         9503250
2369025696000: system.switch_cpus: Raw Gem5 Running in Cycle:        10000000, Inst:         9582525
2369075696000: system.switch_cpus: Raw Gem5 Running in Cycle:        10100000, Inst:         9660162
2369125696000: system.switch_cpus: Raw Gem5 Running in Cycle:        10200000, Inst:         9738553
2369175696000: system.switch_cpus: Raw Gem5 Running in Cycle:        10300000, Inst:         9817456
2369225696000: system.switch_cpus: Raw Gem5 Running in Cycle:        10400000, Inst:         9893572
2369275696000: system.switch_cpus: Raw Gem5 Running in Cycle:        10500000, Inst:         9972204
2369325696000: system.switch_cpus: Raw Gem5 Running in Cycle:        10600000, Inst:        10051328
2369375696000: system.switch_cpus: Raw Gem5 Running in Cycle:        10700000, Inst:        10127977
2369425696000: system.switch_cpus: Raw Gem5 Running in Cycle:        10800000, Inst:        10206367
2369475696000: system.switch_cpus: Raw Gem5 Running in Cycle:        10900000, Inst:        10285526
2369525696000: system.switch_cpus: Raw Gem5 Running in Cycle:        11000000, Inst:        10362509
2369575894000: system.switch_cpus: Raw Gem5 Running in Cycle:        11100000, Inst:        10414824
2369625894000: system.switch_cpus: Raw Gem5 Running in Cycle:        11200000, Inst:        10464306
2369675894000: system.switch_cpus: Raw Gem5 Running in Cycle:        11300000, Inst:        10512165
2369725894000: system.switch_cpus: Raw Gem5 Running in Cycle:        11400000, Inst:        10561697
2369775894000: system.switch_cpus: Raw Gem5 Running in Cycle:        11500000, Inst:        10610310
2369825894000: system.switch_cpus: Raw Gem5 Running in Cycle:        11600000, Inst:        10684594
2369875894000: system.switch_cpus: Raw Gem5 Running in Cycle:        11700000, Inst:        10761043
2369925894000: system.switch_cpus: Raw Gem5 Running in Cycle:        11800000, Inst:        10838427
2369975894000: system.switch_cpus: Raw Gem5 Running in Cycle:        11900000, Inst:        10917711
2370025894000: system.switch_cpus: Raw Gem5 Running in Cycle:        12000000, Inst:        10995462
2370075894000: system.switch_cpus: Raw Gem5 Running in Cycle:        12100000, Inst:        11074365
2370125894000: system.switch_cpus: Raw Gem5 Running in Cycle:        12200000, Inst:        11153779
2370175894000: system.switch_cpus: Raw Gem5 Running in Cycle:        12300000, Inst:        11230533
2370225894000: system.switch_cpus: Raw Gem5 Running in Cycle:        12400000, Inst:        11309025
2370275894000: system.switch_cpus: Raw Gem5 Running in Cycle:        12500000, Inst:        11387814
2370325894000: system.switch_cpus: Raw Gem5 Running in Cycle:        12600000, Inst:        11464925
2370375894000: system.switch_cpus: Raw Gem5 Running in Cycle:        12700000, Inst:        11543700
2370425894000: system.switch_cpus: Raw Gem5 Running in Cycle:        12800000, Inst:        11619560
2370475894000: system.switch_cpus: Raw Gem5 Running in Cycle:        12900000, Inst:        11698719
2370525894000: system.switch_cpus: Raw Gem5 Running in Cycle:        13000000, Inst:        11781161
2370575894000: system.switch_cpus: Raw Gem5 Running in Cycle:        13100000, Inst:        11865278
2370625894000: system.switch_cpus: Raw Gem5 Running in Cycle:        13200000, Inst:        11945577
2370675894000: system.switch_cpus: Raw Gem5 Running in Cycle:        13300000, Inst:        12022971
2370725894000: system.switch_cpus: Raw Gem5 Running in Cycle:        13400000, Inst:        12102629
2370775894000: system.switch_cpus: Raw Gem5 Running in Cycle:        13500000, Inst:        12182285
2370825894000: system.switch_cpus: Raw Gem5 Running in Cycle:        13600000, Inst:        12259284
2370875894000: system.switch_cpus: Raw Gem5 Running in Cycle:        13700000, Inst:        12339030
2370925894000: system.switch_cpus: Raw Gem5 Running in Cycle:        13800000, Inst:        12417088
2370975894000: system.switch_cpus: Raw Gem5 Running in Cycle:        13900000, Inst:        12495095
2371025894000: system.switch_cpus: Raw Gem5 Running in Cycle:        14000000, Inst:        12572220
2371075894000: system.switch_cpus: Raw Gem5 Running in Cycle:        14100000, Inst:        12648450
2371125894000: system.switch_cpus: Raw Gem5 Running in Cycle:        14200000, Inst:        12726457
2371175894000: system.switch_cpus: Raw Gem5 Running in Cycle:        14300000, Inst:        12805488
2371225894000: system.switch_cpus: Raw Gem5 Running in Cycle:        14400000, Inst:        12883517
2371275894000: system.switch_cpus: Raw Gem5 Running in Cycle:        14500000, Inst:        12962017
2371325894000: system.switch_cpus: Raw Gem5 Running in Cycle:        14600000, Inst:        13040404
2371375894000: system.switch_cpus: Raw Gem5 Running in Cycle:        14700000, Inst:        13116652
2371425894000: system.switch_cpus: Raw Gem5 Running in Cycle:        14800000, Inst:        13195167
2371475894000: system.switch_cpus: Raw Gem5 Running in Cycle:        14900000, Inst:        13274055
2371525894000: system.switch_cpus: Raw Gem5 Running in Cycle:        15000000, Inst:        13352332
2371575894000: system.switch_cpus: Raw Gem5 Running in Cycle:        15100000, Inst:        13430979
2371625894000: system.switch_cpus: Raw Gem5 Running in Cycle:        15200000, Inst:        13510251
2371675894000: system.switch_cpus: Raw Gem5 Running in Cycle:        15300000, Inst:        13585983
2371725894000: system.switch_cpus: Raw Gem5 Running in Cycle:        15400000, Inst:        13664758
2371775894000: system.switch_cpus: Raw Gem5 Running in Cycle:        15500000, Inst:        13744286
2371825894000: system.switch_cpus: Raw Gem5 Running in Cycle:        15600000, Inst:        13822307
2371875894000: system.switch_cpus: Raw Gem5 Running in Cycle:        15700000, Inst:        13900826
2371925894000: system.switch_cpus: Raw Gem5 Running in Cycle:        15800000, Inst:        13980113
2371975894000: system.switch_cpus: Raw Gem5 Running in Cycle:        15900000, Inst:        14047288
2372025894000: system.switch_cpus: Raw Gem5 Running in Cycle:        16000000, Inst:        14096382
2372075894000: system.switch_cpus: Raw Gem5 Running in Cycle:        16100000, Inst:        14145814
2372125894000: system.switch_cpus: Raw Gem5 Running in Cycle:        16200000, Inst:        14193517
2372175894000: system.switch_cpus: Raw Gem5 Running in Cycle:        16300000, Inst:        14242359
2372225894000: system.switch_cpus: Raw Gem5 Running in Cycle:        16400000, Inst:        14298464
2372275894000: system.switch_cpus: Raw Gem5 Running in Cycle:        16500000, Inst:        14377316
2372325894000: system.switch_cpus: Raw Gem5 Running in Cycle:        16600000, Inst:        14452461
2372375894000: system.switch_cpus: Raw Gem5 Running in Cycle:        16700000, Inst:        14533011
2372425894000: system.switch_cpus: Raw Gem5 Running in Cycle:        16800000, Inst:        14610265
2372475894000: system.switch_cpus: Raw Gem5 Running in Cycle:        16900000, Inst:        14687120
2372525894000: system.switch_cpus: Raw Gem5 Running in Cycle:        17000000, Inst:        14766535
2372575894000: system.switch_cpus: Raw Gem5 Running in Cycle:        17100000, Inst:        14842892
2372625894000: system.switch_cpus: Raw Gem5 Running in Cycle:        17200000, Inst:        14921667
2372675894000: system.switch_cpus: Raw Gem5 Running in Cycle:        17300000, Inst:        15000939
2372725894000: system.switch_cpus: Raw Gem5 Running in Cycle:        17400000, Inst:        15080368
2372775894000: system.switch_cpus: Raw Gem5 Running in Cycle:        17500000, Inst:        15158379
2372825894000: system.switch_cpus: Raw Gem5 Running in Cycle:        17600000, Inst:        15236895
2372875894000: system.switch_cpus: Raw Gem5 Running in Cycle:        17700000, Inst:        15311986
2372925894000: system.switch_cpus: Raw Gem5 Running in Cycle:        17800000, Inst:        15392410
2372975894000: system.switch_cpus: Raw Gem5 Running in Cycle:        17900000, Inst:        15474867
2373025894000: system.switch_cpus: Raw Gem5 Running in Cycle:        18000000, Inst:        15558219
2373075894000: system.switch_cpus: Raw Gem5 Running in Cycle:        18100000, Inst:        15638032
2373125894000: system.switch_cpus: Raw Gem5 Running in Cycle:        18200000, Inst:        15713603
2373175894000: system.switch_cpus: Raw Gem5 Running in Cycle:        18300000, Inst:        15794671
2373225894000: system.switch_cpus: Raw Gem5 Running in Cycle:        18400000, Inst:        15871782
2373275894000: system.switch_cpus: Raw Gem5 Running in Cycle:        18500000, Inst:        15948457
2373325894000: system.switch_cpus: Raw Gem5 Running in Cycle:        18600000, Inst:        16029971
2373375894000: system.switch_cpus: Raw Gem5 Running in Cycle:        18700000, Inst:        16107466
2373425894000: system.switch_cpus: Raw Gem5 Running in Cycle:        18800000, Inst:        16184525
2373475894000: system.switch_cpus: Raw Gem5 Running in Cycle:        18900000, Inst:        16261717
2373525894000: system.switch_cpus: Raw Gem5 Running in Cycle:        19000000, Inst:        16338079
2373575894000: system.switch_cpus: Raw Gem5 Running in Cycle:        19100000, Inst:        16417603
2373625894000: system.switch_cpus: Raw Gem5 Running in Cycle:        19200000, Inst:        16497416
2373675894000: system.switch_cpus: Raw Gem5 Running in Cycle:        19300000, Inst:        16573887
2373725894000: system.switch_cpus: Raw Gem5 Running in Cycle:        19400000, Inst:        16653302
2373775894000: system.switch_cpus: Raw Gem5 Running in Cycle:        19500000, Inst:        16728654
2373825894000: system.switch_cpus: Raw Gem5 Running in Cycle:        19600000, Inst:        16807794
2373875894000: system.switch_cpus: Raw Gem5 Running in Cycle:        19700000, Inst:        16886441
2373925894000: system.switch_cpus: Raw Gem5 Running in Cycle:        19800000, Inst:        16964462
2373975894000: system.switch_cpus: Raw Gem5 Running in Cycle:        19900000, Inst:        17043749
2374025894000: system.switch_cpus: Raw Gem5 Running in Cycle:        20000000, Inst:        17122253
2374075894000: system.switch_cpus: Raw Gem5 Running in Cycle:        20100000, Inst:        17201924
2374125894000: system.switch_cpus: Raw Gem5 Running in Cycle:        20200000, Inst:        17276888
2374175894000: system.switch_cpus: Raw Gem5 Running in Cycle:        20300000, Inst:        17356160
2374225894000: system.switch_cpus: Raw Gem5 Running in Cycle:        20400000, Inst:        17434807
2374275894000: system.switch_cpus: Raw Gem5 Running in Cycle:        20500000, Inst:        17513852
2374325894000: system.switch_cpus: Raw Gem5 Running in Cycle:        20600000, Inst:        17591987
2374375894000: system.switch_cpus: Raw Gem5 Running in Cycle:        20700000, Inst:        17669610
2374425894000: system.switch_cpus: Raw Gem5 Running in Cycle:        20800000, Inst:        17727833
2374475894000: system.switch_cpus: Raw Gem5 Running in Cycle:        20900000, Inst:        17776113
2374525894000: system.switch_cpus: Raw Gem5 Running in Cycle:        21000000, Inst:        17825658
2374575894000: system.switch_cpus: Raw Gem5 Running in Cycle:        21100000, Inst:        17873873
2374625894000: system.switch_cpus: Raw Gem5 Running in Cycle:        21200000, Inst:        17923099
2374675894000: system.switch_cpus: Raw Gem5 Running in Cycle:        21300000, Inst:        17990762
2374725894000: system.switch_cpus: Raw Gem5 Running in Cycle:        21400000, Inst:        18067504
2374775894000: system.switch_cpus: Raw Gem5 Running in Cycle:        21500000, Inst:        18143734
2374825894000: system.switch_cpus: Raw Gem5 Running in Cycle:        21600000, Inst:        18226122
2374875894000: system.switch_cpus: Raw Gem5 Running in Cycle:        21700000, Inst:        18302435
2374925894000: system.switch_cpus: Raw Gem5 Running in Cycle:        21800000, Inst:        18379674
2374975894000: system.switch_cpus: Raw Gem5 Running in Cycle:        21900000, Inst:        18454269
2375025894000: system.switch_cpus: Raw Gem5 Running in Cycle:        22000000, Inst:        18531900
2375075894000: system.switch_cpus: Raw Gem5 Running in Cycle:        22100000, Inst:        18610155
2375125894000: system.switch_cpus: Raw Gem5 Running in Cycle:        22200000, Inst:        18688048
2375175894000: system.switch_cpus: Raw Gem5 Running in Cycle:        22300000, Inst:        18766183
2375225894000: system.switch_cpus: Raw Gem5 Running in Cycle:        22400000, Inst:        18844943
2375275894000: system.switch_cpus: Raw Gem5 Running in Cycle:        22500000, Inst:        18919794
2375325894000: system.switch_cpus: Raw Gem5 Running in Cycle:        22600000, Inst:        18999066
2375375894000: system.switch_cpus: Raw Gem5 Running in Cycle:        22700000, Inst:        19081026
2375425894000: system.switch_cpus: Raw Gem5 Running in Cycle:        22800000, Inst:        19165018
2375475894000: system.switch_cpus: Raw Gem5 Running in Cycle:        22900000, Inst:        19244418
2375525894000: system.switch_cpus: Raw Gem5 Running in Cycle:        23000000, Inst:        19323306
2375575894000: system.switch_cpus: Raw Gem5 Running in Cycle:        23100000, Inst:        19401697
2375625894000: system.switch_cpus: Raw Gem5 Running in Cycle:        23200000, Inst:        19480742
2375675894000: system.switch_cpus: Raw Gem5 Running in Cycle:        23300000, Inst:        19558749
2375725894000: system.switch_cpus: Raw Gem5 Running in Cycle:        23400000, Inst:        19638405
2375775894000: system.switch_cpus: Raw Gem5 Running in Cycle:        23500000, Inst:        19716426
2375825894000: system.switch_cpus: Raw Gem5 Running in Cycle:        23600000, Inst:        19794433
2375875894000: system.switch_cpus: Raw Gem5 Running in Cycle:        23700000, Inst:        19873705
2375925894000: system.switch_cpus: Raw Gem5 Running in Cycle:        23800000, Inst:        19949068
2375975894000: system.switch_cpus: Raw Gem5 Running in Cycle:        23900000, Inst:        20027697
2376025894000: system.switch_cpus: Raw Gem5 Running in Cycle:        24000000, Inst:        20106475
2376075894000: system.switch_cpus: Raw Gem5 Running in Cycle:        24100000, Inst:        20184880
2376125894000: system.switch_cpus: Raw Gem5 Running in Cycle:        24200000, Inst:        20264024
2376175894000: system.switch_cpus: Raw Gem5 Running in Cycle:        24300000, Inst:        20342159
2376225894000: system.switch_cpus: Raw Gem5 Running in Cycle:        24400000, Inst:        20417471
2376275894000: system.switch_cpus: Raw Gem5 Running in Cycle:        24500000, Inst:        20496794
2376325894000: system.switch_cpus: Raw Gem5 Running in Cycle:        24600000, Inst:        20573792
2376375894000: system.switch_cpus: Raw Gem5 Running in Cycle:        24700000, Inst:        20653462
2376425894000: system.switch_cpus: Raw Gem5 Running in Cycle:        24800000, Inst:        20732222
2376475894000: system.switch_cpus: Raw Gem5 Running in Cycle:        24900000, Inst:        20809157
2376525894000: system.switch_cpus: Raw Gem5 Running in Cycle:        25000000, Inst:        20885848
2376575894000: system.switch_cpus: Raw Gem5 Running in Cycle:        25100000, Inst:        20962831
2376625894000: system.switch_cpus: Raw Gem5 Running in Cycle:        25200000, Inst:        21040202
2376675894000: system.switch_cpus: Raw Gem5 Running in Cycle:        25300000, Inst:        21122669
2376725894000: system.switch_cpus: Raw Gem5 Running in Cycle:        25400000, Inst:        21199547
2376775894000: system.switch_cpus: Raw Gem5 Running in Cycle:        25500000, Inst:        21276650
2376825894000: system.switch_cpus: Raw Gem5 Running in Cycle:        25600000, Inst:        21355870
2376875894000: system.switch_cpus: Raw Gem5 Running in Cycle:        25700000, Inst:        21405900
2376925894000: system.switch_cpus: Raw Gem5 Running in Cycle:        25800000, Inst:        21453731
2376975894000: system.switch_cpus: Raw Gem5 Running in Cycle:        25900000, Inst:        21502777
2377025894000: system.switch_cpus: Raw Gem5 Running in Cycle:        26000000, Inst:        21552196
2377075894000: system.switch_cpus: Raw Gem5 Running in Cycle:        26100000, Inst:        21599463
2377125894000: system.switch_cpus: Raw Gem5 Running in Cycle:        26200000, Inst:        21674672
2377175894000: system.switch_cpus: Raw Gem5 Running in Cycle:        26300000, Inst:        21753447
2377225894000: system.switch_cpus: Raw Gem5 Running in Cycle:        26400000, Inst:        21832027
2377275894000: system.switch_cpus: Raw Gem5 Running in Cycle:        26500000, Inst:        21910243
2377325894000: system.switch_cpus: Raw Gem5 Running in Cycle:        26600000, Inst:        21989003
2377375894000: system.switch_cpus: Raw Gem5 Running in Cycle:        26700000, Inst:        22068034
2377425894000: system.switch_cpus: Raw Gem5 Running in Cycle:        26800000, Inst:        22144022
2377475894000: system.switch_cpus: Raw Gem5 Running in Cycle:        26900000, Inst:        22223038
2377525894000: system.switch_cpus: Raw Gem5 Running in Cycle:        27000000, Inst:        22302197
2377575894000: system.switch_cpus: Raw Gem5 Running in Cycle:        27100000, Inst:        22379066
2377625894000: system.switch_cpus: Raw Gem5 Running in Cycle:        27200000, Inst:        22457841
2377675894000: system.switch_cpus: Raw Gem5 Running in Cycle:        27300000, Inst:        22537286
2377725894000: system.switch_cpus: Raw Gem5 Running in Cycle:        27400000, Inst:        22612988
2377775894000: system.switch_cpus: Raw Gem5 Running in Cycle:        27500000, Inst:        22693397
2377825894000: system.switch_cpus: Raw Gem5 Running in Cycle:        27600000, Inst:        22775982
2377875894000: system.switch_cpus: Raw Gem5 Running in Cycle:        27700000, Inst:        22858069
2377925894000: system.switch_cpus: Raw Gem5 Running in Cycle:        27800000, Inst:        22938365
2377975894000: system.switch_cpus: Raw Gem5 Running in Cycle:        27900000, Inst:        23016116
2378025894000: system.switch_cpus: Raw Gem5 Running in Cycle:        28000000, Inst:        23094649
2378075894000: system.switch_cpus: Raw Gem5 Running in Cycle:        28100000, Inst:        23173675
2378125894000: system.switch_cpus: Raw Gem5 Running in Cycle:        28200000, Inst:        23251416
2378175894000: system.switch_cpus: Raw Gem5 Running in Cycle:        28300000, Inst:        23330205
2378225894000: system.switch_cpus: Raw Gem5 Running in Cycle:        28400000, Inst:        23407331
2378275894000: system.switch_cpus: Raw Gem5 Running in Cycle:        28500000, Inst:        23485910
2378325894000: system.switch_cpus: Raw Gem5 Running in Cycle:        28600000, Inst:        23562591
2378375894000: system.switch_cpus: Raw Gem5 Running in Cycle:        28700000, Inst:        23640086
2378425894000: system.switch_cpus: Raw Gem5 Running in Cycle:        28800000, Inst:        23718989
2378475894000: system.switch_cpus: Raw Gem5 Running in Cycle:        28900000, Inst:        23798005
2378525894000: system.switch_cpus: Raw Gem5 Running in Cycle:        29000000, Inst:        23875574
2378575894000: system.switch_cpus: Raw Gem5 Running in Cycle:        29100000, Inst:        23954545
2378625894000: system.switch_cpus: Raw Gem5 Running in Cycle:        29200000, Inst:        24032680
2378675894000: system.switch_cpus: Raw Gem5 Running in Cycle:        29300000, Inst:        24108668
2378725894000: system.switch_cpus: Raw Gem5 Running in Cycle:        29400000, Inst:        24187187
2378775894000: system.switch_cpus: Raw Gem5 Running in Cycle:        29500000, Inst:        24263685
2378825894000: system.switch_cpus: Raw Gem5 Running in Cycle:        29600000, Inst:        24344492
2378875894000: system.switch_cpus: Raw Gem5 Running in Cycle:        29700000, Inst:        24423255
2378925894000: system.switch_cpus: Raw Gem5 Running in Cycle:        29800000, Inst:        24500110
2378975894000: system.switch_cpus: Raw Gem5 Running in Cycle:        29900000, Inst:        24578515
2379025894000: system.switch_cpus: Raw Gem5 Running in Cycle:        30000000, Inst:        24655641
2379075894000: system.switch_cpus: Raw Gem5 Running in Cycle:        30100000, Inst:        24732624
2379125894000: system.switch_cpus: Raw Gem5 Running in Cycle:        30200000, Inst:        24813446
2379175894000: system.switch_cpus: Raw Gem5 Running in Cycle:        30300000, Inst:        24890072
2379225894000: system.switch_cpus: Raw Gem5 Running in Cycle:        30400000, Inst:        24969332
2379275894000: system.switch_cpus: Raw Gem5 Running in Cycle:        30500000, Inst:        25038791
2379325894000: system.switch_cpus: Raw Gem5 Running in Cycle:        30600000, Inst:        25093722
2379375894000: system.switch_cpus: Raw Gem5 Running in Cycle:        30700000, Inst:        25148444
2379425894000: system.switch_cpus: Raw Gem5 Running in Cycle:        30800000, Inst:        25201008
2379475894000: system.switch_cpus: Raw Gem5 Running in Cycle:        30900000, Inst:        25253481
2379525894000: system.switch_cpus: Raw Gem5 Running in Cycle:        31000000, Inst:        25304942
2379575894000: system.switch_cpus: Raw Gem5 Running in Cycle:        31100000, Inst:        25359874
2379625894000: system.switch_cpus: Raw Gem5 Running in Cycle:        31200000, Inst:        25414687
2379675894000: system.switch_cpus: Raw Gem5 Running in Cycle:        31300000, Inst:        25468535
2379725894000: system.switch_cpus: Raw Gem5 Running in Cycle:        31400000, Inst:        25520814
2379775894000: system.switch_cpus: Raw Gem5 Running in Cycle:        31500000, Inst:        25572137
2379825894000: system.switch_cpus: Raw Gem5 Running in Cycle:        31600000, Inst:        25625309
2379875894000: system.switch_cpus: Raw Gem5 Running in Cycle:        31700000, Inst:        25680240
2379925894000: system.switch_cpus: Raw Gem5 Running in Cycle:        31800000, Inst:        25738056
2379975894000: system.switch_cpus: Raw Gem5 Running in Cycle:        31900000, Inst:        25797237
2380025894000: system.switch_cpus: Raw Gem5 Running in Cycle:        32000000, Inst:        25850368
2380075894000: system.switch_cpus: Raw Gem5 Running in Cycle:        32100000, Inst:        25901949
2380125894000: system.switch_cpus: Raw Gem5 Running in Cycle:        32200000, Inst:        25955629
2380175894000: system.switch_cpus: Raw Gem5 Running in Cycle:        32300000, Inst:        26011926
2380225894000: system.switch_cpus: Raw Gem5 Running in Cycle:        32400000, Inst:        26067039
2380275894000: system.switch_cpus: Raw Gem5 Running in Cycle:        32500000, Inst:        26121035
2380325894000: system.switch_cpus: Raw Gem5 Running in Cycle:        32600000, Inst:        26180126
2380375894000: system.switch_cpus: Raw Gem5 Running in Cycle:        32700000, Inst:        26233874
2380425894000: system.switch_cpus: Raw Gem5 Running in Cycle:        32800000, Inst:        26288996
2380475894000: system.switch_cpus: Raw Gem5 Running in Cycle:        32900000, Inst:        26347287
2380525894000: system.switch_cpus: Raw Gem5 Running in Cycle:        33000000, Inst:        26401288
2380575894000: system.switch_cpus: Raw Gem5 Running in Cycle:        33100000, Inst:        26457018
2380625894000: system.switch_cpus: Raw Gem5 Running in Cycle:        33200000, Inst:        26515324
2380675894000: system.switch_cpus: Raw Gem5 Running in Cycle:        33300000, Inst:        26569246
2380725894000: system.switch_cpus: Raw Gem5 Running in Cycle:        33400000, Inst:        26626811
2380775894000: system.switch_cpus: Raw Gem5 Running in Cycle:        33500000, Inst:        26681930
2380825894000: system.switch_cpus: Raw Gem5 Running in Cycle:        33600000, Inst:        26736492
2380875894000: system.switch_cpus: Raw Gem5 Running in Cycle:        33700000, Inst:        26795023
2380925894000: system.switch_cpus: Raw Gem5 Running in Cycle:        33800000, Inst:        26848770
2380975894000: system.switch_cpus: Raw Gem5 Running in Cycle:        33900000, Inst:        26903994
2381025894000: system.switch_cpus: Raw Gem5 Running in Cycle:        34000000, Inst:        26960987
2381075894000: system.switch_cpus: Raw Gem5 Running in Cycle:        34100000, Inst:        27014908
2381125894000: system.switch_cpus: Raw Gem5 Running in Cycle:        34200000, Inst:        27070649
2381175894000: system.switch_cpus: Raw Gem5 Running in Cycle:        34300000, Inst:        27127594
2381225894000: system.switch_cpus: Raw Gem5 Running in Cycle:        34400000, Inst:        27181190
2381275894000: system.switch_cpus: Raw Gem5 Running in Cycle:        34500000, Inst:        27238129
2381325894000: system.switch_cpus: Raw Gem5 Running in Cycle:        34600000, Inst:        27293919
2381375937000: system.switch_cpus: Raw Gem5 Running in Cycle:        34700000, Inst:        27348029
2381425937000: system.switch_cpus: Raw Gem5 Running in Cycle:        34800000, Inst:        27406635
2381475937000: system.switch_cpus: Raw Gem5 Running in Cycle:        34900000, Inst:        27461023
2381525937000: system.switch_cpus: Raw Gem5 Running in Cycle:        35000000, Inst:        27516299
2381575937000: system.switch_cpus: Raw Gem5 Running in Cycle:        35100000, Inst:        27573076
2381625937000: system.switch_cpus: Raw Gem5 Running in Cycle:        35200000, Inst:        27628273
2381675937000: system.switch_cpus: Raw Gem5 Running in Cycle:        35300000, Inst:        27685529
2381725937000: system.switch_cpus: Raw Gem5 Running in Cycle:        35400000, Inst:        27741278
2381775937000: system.switch_cpus: Raw Gem5 Running in Cycle:        35500000, Inst:        27796359
2381825937000: system.switch_cpus: Raw Gem5 Running in Cycle:        35600000, Inst:        27854026
2381875937000: system.switch_cpus: Raw Gem5 Running in Cycle:        35700000, Inst:        27909234
2381925937000: system.switch_cpus: Raw Gem5 Running in Cycle:        35800000, Inst:        27964430
2381975937000: system.switch_cpus: Raw Gem5 Running in Cycle:        35900000, Inst:        28022166
2382025937000: system.switch_cpus: Raw Gem5 Running in Cycle:        36000000, Inst:        28076857
2382075937000: system.switch_cpus: Raw Gem5 Running in Cycle:        36100000, Inst:        28133103
2382125937000: system.switch_cpus: Raw Gem5 Running in Cycle:        36200000, Inst:        28190620
2382175937000: system.switch_cpus: Raw Gem5 Running in Cycle:        36300000, Inst:        28248398
2382225937000: system.switch_cpus: Raw Gem5 Running in Cycle:        36400000, Inst:        28301460
2382275937000: system.switch_cpus: Raw Gem5 Running in Cycle:        36500000, Inst:        28359837
2382325937000: system.switch_cpus: Raw Gem5 Running in Cycle:        36600000, Inst:        28416106
2382375937000: system.switch_cpus: Raw Gem5 Running in Cycle:        36700000, Inst:        28469261
2382425937000: system.switch_cpus: Raw Gem5 Running in Cycle:        36800000, Inst:        28527634
2382475937000: system.switch_cpus: Raw Gem5 Running in Cycle:        36900000, Inst:        28583391
2382525937000: system.switch_cpus: Raw Gem5 Running in Cycle:        37000000, Inst:        28638815
2382575937000: system.switch_cpus: Raw Gem5 Running in Cycle:        37100000, Inst:        28695991
2382625937000: system.switch_cpus: Raw Gem5 Running in Cycle:        37200000, Inst:        28750552
2382675937000: system.switch_cpus: Raw Gem5 Running in Cycle:        37300000, Inst:        28807967
2382725937000: system.switch_cpus: Raw Gem5 Running in Cycle:        37400000, Inst:        28863564
2382775937000: system.switch_cpus: Raw Gem5 Running in Cycle:        37500000, Inst:        28917152
2382825937000: system.switch_cpus: Raw Gem5 Running in Cycle:        37600000, Inst:        28975288
2382875937000: system.switch_cpus: Raw Gem5 Running in Cycle:        37700000, Inst:        29032242
2382925937000: system.switch_cpus: Raw Gem5 Running in Cycle:        37800000, Inst:        29085435
2382975937000: system.switch_cpus: Raw Gem5 Running in Cycle:        37900000, Inst:        29142895
2383025937000: system.switch_cpus: Raw Gem5 Running in Cycle:        38000000, Inst:        29198443
2383075937000: system.switch_cpus: Raw Gem5 Running in Cycle:        38100000, Inst:        29254267
2383125937000: system.switch_cpus: Raw Gem5 Running in Cycle:        38200000, Inst:        29310852
2383175937000: system.switch_cpus: Raw Gem5 Running in Cycle:        38300000, Inst:        29365173
2383225937000: system.switch_cpus: Raw Gem5 Running in Cycle:        38400000, Inst:        29422863
2383275937000: system.switch_cpus: Raw Gem5 Running in Cycle:        38500000, Inst:        29479162
2383325937000: system.switch_cpus: Raw Gem5 Running in Cycle:        38600000, Inst:        29532234
2383375937000: system.switch_cpus: Raw Gem5 Running in Cycle:        38700000, Inst:        29590741
2383426167500: system.switch_cpus: Raw Gem5 Running in Cycle:        38800000, Inst:        29648080
2383476167500: system.switch_cpus: Raw Gem5 Running in Cycle:        38900000, Inst:        29704139
2383526167500: system.switch_cpus: Raw Gem5 Running in Cycle:        39000000, Inst:        29757806
2383576167500: system.switch_cpus: Raw Gem5 Running in Cycle:        39100000, Inst:        29813881
2383626167500: system.switch_cpus: Raw Gem5 Running in Cycle:        39200000, Inst:        29869624
2383676167500: system.switch_cpus: Raw Gem5 Running in Cycle:        39300000, Inst:        29924339
2383726167500: system.switch_cpus: Raw Gem5 Running in Cycle:        39400000, Inst:        29979641
2383776167500: system.switch_cpus: Raw Gem5 Running in Cycle:        39500000, Inst:        30034474
2383826167500: system.switch_cpus: Raw Gem5 Running in Cycle:        39600000, Inst:        30091348
2383876167500: system.switch_cpus: Raw Gem5 Running in Cycle:        39700000, Inst:        30147009
2383926167500: system.switch_cpus: Raw Gem5 Running in Cycle:        39800000, Inst:        30200246
2383976167500: system.switch_cpus: Raw Gem5 Running in Cycle:        39900000, Inst:        30257791
2384026167500: system.switch_cpus: Raw Gem5 Running in Cycle:        40000000, Inst:        30314170
2384076167500: system.switch_cpus: Raw Gem5 Running in Cycle:        40100000, Inst:        30368558
2384126167500: system.switch_cpus: Raw Gem5 Running in Cycle:        40200000, Inst:        30425634
2384176167500: system.switch_cpus: Raw Gem5 Running in Cycle:        40300000, Inst:        30485812
2384226167500: system.switch_cpus: Raw Gem5 Running in Cycle:        40400000, Inst:        30543627
2384276167500: system.switch_cpus: Raw Gem5 Running in Cycle:        40500000, Inst:        30595879
2384326167500: system.switch_cpus: Raw Gem5 Running in Cycle:        40600000, Inst:        30652197
2384376167500: system.switch_cpus: Raw Gem5 Running in Cycle:        40700000, Inst:        30711829
2384426167500: system.switch_cpus: Raw Gem5 Running in Cycle:        40800000, Inst:        30764937
2384476167500: system.switch_cpus: Raw Gem5 Running in Cycle:        40900000, Inst:        30822832
2384526167500: system.switch_cpus: Raw Gem5 Running in Cycle:        41000000, Inst:        30879306
2384576167500: system.switch_cpus: Raw Gem5 Running in Cycle:        41100000, Inst:        30933615
2384626167500: system.switch_cpus: Raw Gem5 Running in Cycle:        41200000, Inst:        30992306
2384676167500: system.switch_cpus: Raw Gem5 Running in Cycle:        41300000, Inst:        31045032
2384726167500: system.switch_cpus: Raw Gem5 Running in Cycle:        41400000, Inst:        31100502
2384776167500: system.switch_cpus: Raw Gem5 Running in Cycle:        41500000, Inst:        31159093
2384826167500: system.switch_cpus: Raw Gem5 Running in Cycle:        41600000, Inst:        31212435
2384876167500: system.switch_cpus: Raw Gem5 Running in Cycle:        41700000, Inst:        31268018
2384926167500: system.switch_cpus: Raw Gem5 Running in Cycle:        41800000, Inst:        31326405
2384976167500: system.switch_cpus: Raw Gem5 Running in Cycle:        41900000, Inst:        31380553
2385026167500: system.switch_cpus: Raw Gem5 Running in Cycle:        42000000, Inst:        31437252
2385076167500: system.switch_cpus: Raw Gem5 Running in Cycle:        42100000, Inst:        31493646
2385126167500: system.switch_cpus: Raw Gem5 Running in Cycle:        42200000, Inst:        31548991
2385176167500: system.switch_cpus: Raw Gem5 Running in Cycle:        42300000, Inst:        31607126
2385226167500: system.switch_cpus: Raw Gem5 Running in Cycle:        42400000, Inst:        31661049
2385276167500: system.switch_cpus: Raw Gem5 Running in Cycle:        42500000, Inst:        31716933
2385326167500: system.switch_cpus: Raw Gem5 Running in Cycle:        42600000, Inst:        31775658
2385376167500: system.switch_cpus: Raw Gem5 Running in Cycle:        42700000, Inst:        31828847
2385426167500: system.switch_cpus: Raw Gem5 Running in Cycle:        42800000, Inst:        31884350
2385476646000: system.switch_cpus: Raw Gem5 Running in Cycle:        42900000, Inst:        31935854
2385526646000: system.switch_cpus: Raw Gem5 Running in Cycle:        43000000, Inst:        31981436
2385576646000: system.switch_cpus: Raw Gem5 Running in Cycle:        43100000, Inst:        32029058
2385626646000: system.switch_cpus: Raw Gem5 Running in Cycle:        43200000, Inst:        32076243
2385676646000: system.switch_cpus: Raw Gem5 Running in Cycle:        43300000, Inst:        32121832
2385726646000: system.switch_cpus: Raw Gem5 Running in Cycle:        43400000, Inst:        32169056
2385776646000: system.switch_cpus: Raw Gem5 Running in Cycle:        43500000, Inst:        32217267
2385826646000: system.switch_cpus: Raw Gem5 Running in Cycle:        43600000, Inst:        32263510
2385876646000: system.switch_cpus: Raw Gem5 Running in Cycle:        43700000, Inst:        32310413
2385926646000: system.switch_cpus: Raw Gem5 Running in Cycle:        43800000, Inst:        32357933
2385976646000: system.switch_cpus: Raw Gem5 Running in Cycle:        43900000, Inst:        32405482
2386026646000: system.switch_cpus: Raw Gem5 Running in Cycle:        44000000, Inst:        32451734
2386076646000: system.switch_cpus: Raw Gem5 Running in Cycle:        44100000, Inst:        32498952
2386126778500: system.switch_cpus: Raw Gem5 Running in Cycle:        44200000, Inst:        32546021
2386176778500: system.switch_cpus: Raw Gem5 Running in Cycle:        44300000, Inst:        32593756
2386226778500: system.switch_cpus: Raw Gem5 Running in Cycle:        44400000, Inst:        32639741
2386276778500: system.switch_cpus: Raw Gem5 Running in Cycle:        44500000, Inst:        32686245
2386326778500: system.switch_cpus: Raw Gem5 Running in Cycle:        44600000, Inst:        32733469
2386376778500: system.switch_cpus: Raw Gem5 Running in Cycle:        44700000, Inst:        32779721
2386426778500: system.switch_cpus: Raw Gem5 Running in Cycle:        44800000, Inst:        32826886
2386476778500: system.switch_cpus: Raw Gem5 Running in Cycle:        44900000, Inst:        32874170
2386526778500: system.switch_cpus: Raw Gem5 Running in Cycle:        45000000, Inst:        32922668
2386576778500: system.switch_cpus: Raw Gem5 Running in Cycle:        45100000, Inst:        32969277
2386626778500: system.switch_cpus: Raw Gem5 Running in Cycle:        45200000, Inst:        33015843
2386676778500: system.switch_cpus: Raw Gem5 Running in Cycle:        45300000, Inst:        33062712
2386726778500: system.switch_cpus: Raw Gem5 Running in Cycle:        45400000, Inst:        33109965
2386776778500: system.switch_cpus: Raw Gem5 Running in Cycle:        45500000, Inst:        33157828
2386826778500: system.switch_cpus: Raw Gem5 Running in Cycle:        45600000, Inst:        33204128
2386876778500: system.switch_cpus: Raw Gem5 Running in Cycle:        45700000, Inst:        33251640
2386926778500: system.switch_cpus: Raw Gem5 Running in Cycle:        45800000, Inst:        33300187
2386976778500: system.switch_cpus: Raw Gem5 Running in Cycle:        45900000, Inst:        33348356
2387026778500: system.switch_cpus: Raw Gem5 Running in Cycle:        46000000, Inst:        33396567
2387076778500: system.switch_cpus: Raw Gem5 Running in Cycle:        46100000, Inst:        33444124
2387126778500: system.switch_cpus: Raw Gem5 Running in Cycle:        46200000, Inst:        33492957
2387176778500: system.switch_cpus: Raw Gem5 Running in Cycle:        46300000, Inst:        33540204
2387226778500: system.switch_cpus: Raw Gem5 Running in Cycle:        46400000, Inst:        33587730
2387276778500: system.switch_cpus: Raw Gem5 Running in Cycle:        46500000, Inst:        33635255
2387326778500: system.switch_cpus: Raw Gem5 Running in Cycle:        46600000, Inst:        33683131
2387376778500: system.switch_cpus: Raw Gem5 Running in Cycle:        46700000, Inst:        33730034
2387426778500: system.switch_cpus: Raw Gem5 Running in Cycle:        46800000, Inst:        33778351
2387476778500: system.switch_cpus: Raw Gem5 Running in Cycle:        46900000, Inst:        33826147
2387526778500: system.switch_cpus: Raw Gem5 Running in Cycle:        47000000, Inst:        33874029
2387576778500: system.switch_cpus: Raw Gem5 Running in Cycle:        47100000, Inst:        33922868
2387626778500: system.switch_cpus: Raw Gem5 Running in Cycle:        47200000, Inst:        33971401
2387676778500: system.switch_cpus: Raw Gem5 Running in Cycle:        47300000, Inst:        34019284
2387726778500: system.switch_cpus: Raw Gem5 Running in Cycle:        47400000, Inst:        34066474
2387776778500: system.switch_cpus: Raw Gem5 Running in Cycle:        47500000, Inst:        34115019
2387826778500: system.switch_cpus: Raw Gem5 Running in Cycle:        47600000, Inst:        34162574
2387876778500: system.switch_cpus: Raw Gem5 Running in Cycle:        47700000, Inst:        34210739
2387926778500: system.switch_cpus: Raw Gem5 Running in Cycle:        47800000, Inst:        34259278
2387976778500: system.switch_cpus: Raw Gem5 Running in Cycle:        47900000, Inst:        34307133
2388026778500: system.switch_cpus: Raw Gem5 Running in Cycle:        48000000, Inst:        34354683
2388076778500: system.switch_cpus: Raw Gem5 Running in Cycle:        48100000, Inst:        34402870
2388126778500: system.switch_cpus: Raw Gem5 Running in Cycle:        48200000, Inst:        34450090
2388176778500: system.switch_cpus: Raw Gem5 Running in Cycle:        48300000, Inst:        34497727
2388226778500: system.switch_cpus: Raw Gem5 Running in Cycle:        48400000, Inst:        34546262
2388276778500: system.switch_cpus: Raw Gem5 Running in Cycle:        48500000, Inst:        34594416
2388326778500: system.switch_cpus: Raw Gem5 Running in Cycle:        48600000, Inst:        34641995
2388376778500: system.switch_cpus: Raw Gem5 Running in Cycle:        48700000, Inst:        34689198
2388426778500: system.switch_cpus: Raw Gem5 Running in Cycle:        48800000, Inst:        34738589
2388476778500: system.switch_cpus: Raw Gem5 Running in Cycle:        48900000, Inst:        34785578
2388526778500: system.switch_cpus: Raw Gem5 Running in Cycle:        49000000, Inst:        34834122
2388576778500: system.switch_cpus: Raw Gem5 Running in Cycle:        49100000, Inst:        34881656
2388626778500: system.switch_cpus: Raw Gem5 Running in Cycle:        49200000, Inst:        34929219
2388676778500: system.switch_cpus: Raw Gem5 Running in Cycle:        49300000, Inst:        34976742
2388726778500: system.switch_cpus: Raw Gem5 Running in Cycle:        49400000, Inst:        35024568
2388776778500: system.switch_cpus: Raw Gem5 Running in Cycle:        49500000, Inst:        35073194
2388826778500: system.switch_cpus: Raw Gem5 Running in Cycle:        49600000, Inst:        35121397
2388876778500: system.switch_cpus: Raw Gem5 Running in Cycle:        49700000, Inst:        35169902
2388926778500: system.switch_cpus: Raw Gem5 Running in Cycle:        49800000, Inst:        35218672
2388976778500: system.switch_cpus: Raw Gem5 Running in Cycle:        49900000, Inst:        35266118
2389026778500: system.switch_cpus: Raw Gem5 Running in Cycle:        50000000, Inst:        35313510
2389076778500: system.switch_cpus: Raw Gem5 Running in Cycle:        50100000, Inst:        35361396
2389126778500: system.switch_cpus: Raw Gem5 Running in Cycle:        50200000, Inst:        35408295
2389176778500: system.switch_cpus: Raw Gem5 Running in Cycle:        50300000, Inst:        35456794
2389226778500: system.switch_cpus: Raw Gem5 Running in Cycle:        50400000, Inst:        35504677
2389276778500: system.switch_cpus: Raw Gem5 Running in Cycle:        50500000, Inst:        35553507
2389326778500: system.switch_cpus: Raw Gem5 Running in Cycle:        50600000, Inst:        35601062
2389376778500: system.switch_cpus: Raw Gem5 Running in Cycle:        50700000, Inst:        35648948
2389426778500: system.switch_cpus: Raw Gem5 Running in Cycle:        50800000, Inst:        35695506
2389476778500: system.switch_cpus: Raw Gem5 Running in Cycle:        50900000, Inst:        35744021
2389526778500: system.switch_cpus: Raw Gem5 Running in Cycle:        51000000, Inst:        35792948
2389576778500: system.switch_cpus: Raw Gem5 Running in Cycle:        51100000, Inst:        35840794
2389626778500: system.switch_cpus: Raw Gem5 Running in Cycle:        51200000, Inst:        35888455
2389676778500: system.switch_cpus: Raw Gem5 Running in Cycle:        51300000, Inst:        35935909
2389726778500: system.switch_cpus: Raw Gem5 Running in Cycle:        51400000, Inst:        35984402
2389776778500: system.switch_cpus: Raw Gem5 Running in Cycle:        51500000, Inst:        36031307
2389826778500: system.switch_cpus: Raw Gem5 Running in Cycle:        51600000, Inst:        36079841
2389876778500: system.switch_cpus: Raw Gem5 Running in Cycle:        51700000, Inst:        36128342
2389926778500: system.switch_cpus: Raw Gem5 Running in Cycle:        51800000, Inst:        36175903
2389976778500: system.switch_cpus: Raw Gem5 Running in Cycle:        51900000, Inst:        36224108
2390026778500: system.switch_cpus: Raw Gem5 Running in Cycle:        52000000, Inst:        36271957
2390076778500: system.switch_cpus: Raw Gem5 Running in Cycle:        52100000, Inst:        36320170
2390126778500: system.switch_cpus: Raw Gem5 Running in Cycle:        52200000, Inst:        36367782
2390176778500: system.switch_cpus: Raw Gem5 Running in Cycle:        52300000, Inst:        36417416
2390226778500: system.switch_cpus: Raw Gem5 Running in Cycle:        52400000, Inst:        36466135
2390276778500: system.switch_cpus: Raw Gem5 Running in Cycle:        52500000, Inst:        36514635
2390326778500: system.switch_cpus: Raw Gem5 Running in Cycle:        52600000, Inst:        36561540
2390376778500: system.switch_cpus: Raw Gem5 Running in Cycle:        52700000, Inst:        36609478
2390426778500: system.switch_cpus: Raw Gem5 Running in Cycle:        52800000, Inst:        36656520
2390476778500: system.switch_cpus: Raw Gem5 Running in Cycle:        52900000, Inst:        36704490
2390526778500: system.switch_cpus: Raw Gem5 Running in Cycle:        53000000, Inst:        36753032
2390576778500: system.switch_cpus: Raw Gem5 Running in Cycle:        53100000, Inst:        36801530
2390626778500: system.switch_cpus: Raw Gem5 Running in Cycle:        53200000, Inst:        36849089
2390676778500: system.switch_cpus: Raw Gem5 Running in Cycle:        53300000, Inst:        36896972
2390726778500: system.switch_cpus: Raw Gem5 Running in Cycle:        53400000, Inst:        36942975
2390776778500: system.switch_cpus: Raw Gem5 Running in Cycle:        53500000, Inst:        36991444
2390826778500: system.switch_cpus: Raw Gem5 Running in Cycle:        53600000, Inst:        37040312
2390876778500: system.switch_cpus: Raw Gem5 Running in Cycle:        53700000, Inst:        37089469
2390926778500: system.switch_cpus: Raw Gem5 Running in Cycle:        53800000, Inst:        37137689
2390976778500: system.switch_cpus: Raw Gem5 Running in Cycle:        53900000, Inst:        37185201
2391026778500: system.switch_cpus: Raw Gem5 Running in Cycle:        54000000, Inst:        37233741
2391076778500: system.switch_cpus: Raw Gem5 Running in Cycle:        54100000, Inst:        37280911
2391126778500: system.switch_cpus: Raw Gem5 Running in Cycle:        54200000, Inst:        37329139
2391176778500: system.switch_cpus: Raw Gem5 Running in Cycle:        54300000, Inst:        37378006
2391226778500: system.switch_cpus: Raw Gem5 Running in Cycle:        54400000, Inst:        37426182
2391276778500: system.switch_cpus: Raw Gem5 Running in Cycle:        54500000, Inst:        37473737
2391326778500: system.switch_cpus: Raw Gem5 Running in Cycle:        54600000, Inst:        37521626
2391376778500: system.switch_cpus: Raw Gem5 Running in Cycle:        54700000, Inst:        37570178
2391426778500: system.switch_cpus: Raw Gem5 Running in Cycle:        54800000, Inst:        37617405
2391476778500: system.switch_cpus: Raw Gem5 Running in Cycle:        54900000, Inst:        37665977
2391526778500: system.switch_cpus: Raw Gem5 Running in Cycle:        55000000, Inst:        37715106
2391576778500: system.switch_cpus: Raw Gem5 Running in Cycle:        55100000, Inst:        37763975
2391626778500: system.switch_cpus: Raw Gem5 Running in Cycle:        55200000, Inst:        37811162
2391676778500: system.switch_cpus: Raw Gem5 Running in Cycle:        55300000, Inst:        37859235
2391726778500: system.switch_cpus: Raw Gem5 Running in Cycle:        55400000, Inst:        37905950
2391776778500: system.switch_cpus: Raw Gem5 Running in Cycle:        55500000, Inst:        37953529
2391826778500: system.switch_cpus: Raw Gem5 Running in Cycle:        55600000, Inst:        38002001
2391876778500: system.switch_cpus: Raw Gem5 Running in Cycle:        55700000, Inst:        38050865
2391926778500: system.switch_cpus: Raw Gem5 Running in Cycle:        55800000, Inst:        38099397
2391976778500: system.switch_cpus: Raw Gem5 Running in Cycle:        55900000, Inst:        38146931
2392026778500: system.switch_cpus: Raw Gem5 Running in Cycle:        56000000, Inst:        38193228
2392076778500: system.switch_cpus: Raw Gem5 Running in Cycle:        56100000, Inst:        38240889
2392126778500: system.switch_cpus: Raw Gem5 Running in Cycle:        56200000, Inst:        38289031
2392176778500: system.switch_cpus: Raw Gem5 Running in Cycle:        56300000, Inst:        38338421
2392226778500: system.switch_cpus: Raw Gem5 Running in Cycle:        56400000, Inst:        38386659
2392276778500: system.switch_cpus: Raw Gem5 Running in Cycle:        56500000, Inst:        38434542
2392326778500: system.switch_cpus: Raw Gem5 Running in Cycle:        56600000, Inst:        38482382
2392376778500: system.switch_cpus: Raw Gem5 Running in Cycle:        56700000, Inst:        38529285
2392426778500: system.switch_cpus: Raw Gem5 Running in Cycle:        56800000, Inst:        38578146
2392476778500: system.switch_cpus: Raw Gem5 Running in Cycle:        56900000, Inst:        38625704
2392526778500: system.switch_cpus: Raw Gem5 Running in Cycle:        57000000, Inst:        38674395
2392576778500: system.switch_cpus: Raw Gem5 Running in Cycle:        57100000, Inst:        38722413
2392626778500: system.switch_cpus: Raw Gem5 Running in Cycle:        57200000, Inst:        38770262
2392676778500: system.switch_cpus: Raw Gem5 Running in Cycle:        57300000, Inst:        38818210
2392726778500: system.switch_cpus: Raw Gem5 Running in Cycle:        57400000, Inst:        38865437
2392776778500: system.switch_cpus: Raw Gem5 Running in Cycle:        57500000, Inst:        38913605
2392826778500: system.switch_cpus: Raw Gem5 Running in Cycle:        57600000, Inst:        38962797
2392876778500: system.switch_cpus: Raw Gem5 Running in Cycle:        57700000, Inst:        39011299
2392926778500: system.switch_cpus: Raw Gem5 Running in Cycle:        57800000, Inst:        39059662
2392976778500: system.switch_cpus: Raw Gem5 Running in Cycle:        57900000, Inst:        39107393
2393026778500: system.switch_cpus: Raw Gem5 Running in Cycle:        58000000, Inst:        39154303
2393076778500: system.switch_cpus: Raw Gem5 Running in Cycle:        58100000, Inst:        39202469
2393126778500: system.switch_cpus: Raw Gem5 Running in Cycle:        58200000, Inst:        39250358
2393176778500: system.switch_cpus: Raw Gem5 Running in Cycle:        58300000, Inst:        39299003
2393226778500: system.switch_cpus: Raw Gem5 Running in Cycle:        58400000, Inst:        39348052
2393276778500: system.switch_cpus: Raw Gem5 Running in Cycle:        58500000, Inst:        39396220
2393326778500: system.switch_cpus: Raw Gem5 Running in Cycle:        58600000, Inst:        39442209
2393376778500: system.switch_cpus: Raw Gem5 Running in Cycle:        58700000, Inst:        39489425
2393426778500: system.switch_cpus: Raw Gem5 Running in Cycle:        58800000, Inst:        39538617
2393476778500: system.switch_cpus: Raw Gem5 Running in Cycle:        58900000, Inst:        39586663
2393526778500: system.switch_cpus: Raw Gem5 Running in Cycle:        59000000, Inst:        39634354
2393576778500: system.switch_cpus: Raw Gem5 Running in Cycle:        59100000, Inst:        39682559
2393626778500: system.switch_cpus: Raw Gem5 Running in Cycle:        59200000, Inst:        39730733
2393676778500: system.switch_cpus: Raw Gem5 Running in Cycle:        59300000, Inst:        39777957
2393726778500: system.switch_cpus: Raw Gem5 Running in Cycle:        59400000, Inst:        39825840
2393776778500: system.switch_cpus: Raw Gem5 Running in Cycle:        59500000, Inst:        39873650
2393826778500: system.switch_cpus: Raw Gem5 Running in Cycle:        59600000, Inst:        39921897
2393876778500: system.switch_cpus: Raw Gem5 Running in Cycle:        59700000, Inst:        39970408
2393926778500: system.switch_cpus: Raw Gem5 Running in Cycle:        59800000, Inst:        40017963
2393976778500: system.switch_cpus: Raw Gem5 Running in Cycle:        59900000, Inst:        40066170
2394026778500: system.switch_cpus: Raw Gem5 Running in Cycle:        60000000, Inst:        40113127
2394076778500: system.switch_cpus: Raw Gem5 Running in Cycle:        60100000, Inst:        40161300
2394126778500: system.switch_cpus: Raw Gem5 Running in Cycle:        60200000, Inst:        40210164
2394176778500: system.switch_cpus: Raw Gem5 Running in Cycle:        60300000, Inst:        40258043
2394226778500: system.switch_cpus: Raw Gem5 Running in Cycle:        60400000, Inst:        40307539
2394276778500: system.switch_cpus: Raw Gem5 Running in Cycle:        60500000, Inst:        40355379
2394326778500: system.switch_cpus: Raw Gem5 Running in Cycle:        60600000, Inst:        40402388
2394376778500: system.switch_cpus: Raw Gem5 Running in Cycle:        60700000, Inst:        40450164
2394426778500: system.switch_cpus: Raw Gem5 Running in Cycle:        60800000, Inst:        40498663
2394476778500: system.switch_cpus: Raw Gem5 Running in Cycle:        60900000, Inst:        40546251
2394526778500: system.switch_cpus: Raw Gem5 Running in Cycle:        61000000, Inst:        40595085
2394576778500: system.switch_cpus: Raw Gem5 Running in Cycle:        61100000, Inst:        40644518
2394626778500: system.switch_cpus: Raw Gem5 Running in Cycle:        61200000, Inst:        40690546
2394676778500: system.switch_cpus: Raw Gem5 Running in Cycle:        61300000, Inst:        40737775
2394726778500: system.switch_cpus: Raw Gem5 Running in Cycle:        61400000, Inst:        40787258
2394776778500: system.switch_cpus: Raw Gem5 Running in Cycle:        61500000, Inst:        40835662
2394826778500: system.switch_cpus: Raw Gem5 Running in Cycle:        61600000, Inst:        40882996
2394876778500: system.switch_cpus: Raw Gem5 Running in Cycle:        61700000, Inst:        40931202
2394926778500: system.switch_cpus: Raw Gem5 Running in Cycle:        61800000, Inst:        40979090
2394976778500: system.switch_cpus: Raw Gem5 Running in Cycle:        61900000, Inst:        41026314
2395026778500: system.switch_cpus: Raw Gem5 Running in Cycle:        62000000, Inst:        41073773
2395076778500: system.switch_cpus: Raw Gem5 Running in Cycle:        62100000, Inst:        41122044
2395126778500: system.switch_cpus: Raw Gem5 Running in Cycle:        62200000, Inst:        41169592
2395176778500: system.switch_cpus: Raw Gem5 Running in Cycle:        62300000, Inst:        41217110
2395226778500: system.switch_cpus: Raw Gem5 Running in Cycle:        62400000, Inst:        41265652
2395276985500: system.switch_cpus: Raw Gem5 Running in Cycle:        62500000, Inst:        41320224
2395329256500: system.switch_cpus: Raw Gem5 Running in Cycle:        62600000, Inst:        41444066
2395379256500: system.switch_cpus: Raw Gem5 Running in Cycle:        62700000, Inst:        41592528
2395429256500: system.switch_cpus: Raw Gem5 Running in Cycle:        62800000, Inst:        41740120
2395479256500: system.switch_cpus: Raw Gem5 Running in Cycle:        62900000, Inst:        41878520
2395529256500: system.switch_cpus: Raw Gem5 Running in Cycle:        63000000, Inst:        42022989
2395579256500: system.switch_cpus: Raw Gem5 Running in Cycle:        63100000, Inst:        42172032
2395629256500: system.switch_cpus: Raw Gem5 Running in Cycle:        63200000, Inst:        42316014
2395679256500: system.switch_cpus: Raw Gem5 Running in Cycle:        63300000, Inst:        42457666
2395729423000: system.switch_cpus: Raw Gem5 Running in Cycle:        63400000, Inst:        42607523
2395779423000: system.switch_cpus: Raw Gem5 Running in Cycle:        63500000, Inst:        42657510
2395829423000: system.switch_cpus: Raw Gem5 Running in Cycle:        63600000, Inst:        42706979
2395879822500: system.switch_cpus: Raw Gem5 Running in Cycle:        63700000, Inst:        42819346
2395929822500: system.switch_cpus: Raw Gem5 Running in Cycle:        63800000, Inst:        42991926
2395979822500: system.switch_cpus: Raw Gem5 Running in Cycle:        63900000, Inst:        43146335
2396029822500: system.switch_cpus: Raw Gem5 Running in Cycle:        64000000, Inst:        43309407
2396079822500: system.switch_cpus: Raw Gem5 Running in Cycle:        64100000, Inst:        43461814
2396129822500: system.switch_cpus: Raw Gem5 Running in Cycle:        64200000, Inst:        43634622
2396179822500: system.switch_cpus: Raw Gem5 Running in Cycle:        64300000, Inst:        43787604
2396229822500: system.switch_cpus: Raw Gem5 Running in Cycle:        64400000, Inst:        43950376
2396279822500: system.switch_cpus: Raw Gem5 Running in Cycle:        64500000, Inst:        44101936
2396329822500: system.switch_cpus: Raw Gem5 Running in Cycle:        64600000, Inst:        44151293
2396379822500: system.switch_cpus: Raw Gem5 Running in Cycle:        64700000, Inst:        44200874
2396429822500: system.switch_cpus: Raw Gem5 Running in Cycle:        64800000, Inst:        44344158
2396479822500: system.switch_cpus: Raw Gem5 Running in Cycle:        64900000, Inst:        44519261
2396529822500: system.switch_cpus: Raw Gem5 Running in Cycle:        65000000, Inst:        44694237
2396579822500: system.switch_cpus: Raw Gem5 Running in Cycle:        65100000, Inst:        44861406
2396629822500: system.switch_cpus: Raw Gem5 Running in Cycle:        65200000, Inst:        45040914
2396679822500: system.switch_cpus: Raw Gem5 Running in Cycle:        65300000, Inst:        45221280
2396729822500: system.switch_cpus: Raw Gem5 Running in Cycle:        65400000, Inst:        45399696
2396779822500: system.switch_cpus: Raw Gem5 Running in Cycle:        65500000, Inst:        45579480
2396829822500: system.switch_cpus: Raw Gem5 Running in Cycle:        65600000, Inst:        45630520
2396879822500: system.switch_cpus: Raw Gem5 Running in Cycle:        65700000, Inst:        45680521
2396929822500: system.switch_cpus: Raw Gem5 Running in Cycle:        65800000, Inst:        45790346
2396979822500: system.switch_cpus: Raw Gem5 Running in Cycle:        65900000, Inst:        45959466
2397029822500: system.switch_cpus: Raw Gem5 Running in Cycle:        66000000, Inst:        46130197
2397079822500: system.switch_cpus: Raw Gem5 Running in Cycle:        66100000, Inst:        46300703
2397129822500: system.switch_cpus: Raw Gem5 Running in Cycle:        66200000, Inst:        46474156
2397179822500: system.switch_cpus: Raw Gem5 Running in Cycle:        66300000, Inst:        46641115
2397229822500: system.switch_cpus: Raw Gem5 Running in Cycle:        66400000, Inst:        46808318
2397279822500: system.switch_cpus: Raw Gem5 Running in Cycle:        66500000, Inst:        46987058
2397329822500: system.switch_cpus: Raw Gem5 Running in Cycle:        66600000, Inst:        47097425
2397379822500: system.switch_cpus: Raw Gem5 Running in Cycle:        66700000, Inst:        47147230
2397429822500: system.switch_cpus: Raw Gem5 Running in Cycle:        66800000, Inst:        47203708
2397479822500: system.switch_cpus: Raw Gem5 Running in Cycle:        66900000, Inst:        47373632
2397529822500: system.switch_cpus: Raw Gem5 Running in Cycle:        67000000, Inst:        47547602
2397579822500: system.switch_cpus: Raw Gem5 Running in Cycle:        67100000, Inst:        47719368
2397629822500: system.switch_cpus: Raw Gem5 Running in Cycle:        67200000, Inst:        47890372
2397679822500: system.switch_cpus: Raw Gem5 Running in Cycle:        67300000, Inst:        48060144
2397729822500: system.switch_cpus: Raw Gem5 Running in Cycle:        67400000, Inst:        48232898
2397779822500: system.switch_cpus: Raw Gem5 Running in Cycle:        67500000, Inst:        48401557
2397829822500: system.switch_cpus: Raw Gem5 Running in Cycle:        67600000, Inst:        48567967
2397879822500: system.switch_cpus: Raw Gem5 Running in Cycle:        67700000, Inst:        48618369
2397929822500: system.switch_cpus: Raw Gem5 Running in Cycle:        67800000, Inst:        48669045
2397979822500: system.switch_cpus: Raw Gem5 Running in Cycle:        67900000, Inst:        48784866
2398029822500: system.switch_cpus: Raw Gem5 Running in Cycle:        68000000, Inst:        48961346
2398079822500: system.switch_cpus: Raw Gem5 Running in Cycle:        68100000, Inst:        49134904
2398129822500: system.switch_cpus: Raw Gem5 Running in Cycle:        68200000, Inst:        49297586
2398179822500: system.switch_cpus: Raw Gem5 Running in Cycle:        68300000, Inst:        49465040
2398229822500: system.switch_cpus: Raw Gem5 Running in Cycle:        68400000, Inst:        49634551
2398279822500: system.switch_cpus: Raw Gem5 Running in Cycle:        68500000, Inst:        49793078
2398329822500: system.switch_cpus: Raw Gem5 Running in Cycle:        68600000, Inst:        49968132
2398379822500: system.switch_cpus: Raw Gem5 Running in Cycle:        68700000, Inst:        50077338
2398429822500: system.switch_cpus: Raw Gem5 Running in Cycle:        68800000, Inst:        50126877
2398479822500: system.switch_cpus: Raw Gem5 Running in Cycle:        68900000, Inst:        50182302
2398529822500: system.switch_cpus: Raw Gem5 Running in Cycle:        69000000, Inst:        50350017
2398579822500: system.switch_cpus: Raw Gem5 Running in Cycle:        69100000, Inst:        50523804
2398629822500: system.switch_cpus: Raw Gem5 Running in Cycle:        69200000, Inst:        50695931
2398679822500: system.switch_cpus: Raw Gem5 Running in Cycle:        69300000, Inst:        50873059
2398729822500: system.switch_cpus: Raw Gem5 Running in Cycle:        69400000, Inst:        51047663
2398779822500: system.switch_cpus: Raw Gem5 Running in Cycle:        69500000, Inst:        51223194
2398829822500: system.switch_cpus: Raw Gem5 Running in Cycle:        69600000, Inst:        51399171
2398879822500: system.switch_cpus: Raw Gem5 Running in Cycle:        69700000, Inst:        51551899
2398929822500: system.switch_cpus: Raw Gem5 Running in Cycle:        69800000, Inst:        51602040
2398979822500: system.switch_cpus: Raw Gem5 Running in Cycle:        69900000, Inst:        51652576
2399029822500: system.switch_cpus: Raw Gem5 Running in Cycle:        70000000, Inst:        51769540
2399079822500: system.switch_cpus: Raw Gem5 Running in Cycle:        70100000, Inst:        51947355
2399129822500: system.switch_cpus: Raw Gem5 Running in Cycle:        70200000, Inst:        52124912
2399179822500: system.switch_cpus: Raw Gem5 Running in Cycle:        70300000, Inst:        52301054
2399229822500: system.switch_cpus: Raw Gem5 Running in Cycle:        70400000, Inst:        52469856
2399279822500: system.switch_cpus: Raw Gem5 Running in Cycle:        70500000, Inst:        52639951
2399329822500: system.switch_cpus: Raw Gem5 Running in Cycle:        70600000, Inst:        52809137
2399379822500: system.switch_cpus: Raw Gem5 Running in Cycle:        70700000, Inst:        52982615
2399429822500: system.switch_cpus: Raw Gem5 Running in Cycle:        70800000, Inst:        53069631
2399479822500: system.switch_cpus: Raw Gem5 Running in Cycle:        70900000, Inst:        53119338
2399529822500: system.switch_cpus: Raw Gem5 Running in Cycle:        71000000, Inst:        53200535
2399579822500: system.switch_cpus: Raw Gem5 Running in Cycle:        71100000, Inst:        53352384
2399629822500: system.switch_cpus: Raw Gem5 Running in Cycle:        71200000, Inst:        53531732
2399679822500: system.switch_cpus: Raw Gem5 Running in Cycle:        71300000, Inst:        53710690
2399729822500: system.switch_cpus: Raw Gem5 Running in Cycle:        71400000, Inst:        53889634
2399779822500: system.switch_cpus: Raw Gem5 Running in Cycle:        71500000, Inst:        54063734
2399829822500: system.switch_cpus: Raw Gem5 Running in Cycle:        71600000, Inst:        54231908
2399879822500: system.switch_cpus: Raw Gem5 Running in Cycle:        71700000, Inst:        54405554
2399929822500: system.switch_cpus: Raw Gem5 Running in Cycle:        71800000, Inst:        54540745
2399979822500: system.switch_cpus: Raw Gem5 Running in Cycle:        71900000, Inst:        54591684
2400029822500: system.switch_cpus: Raw Gem5 Running in Cycle:        72000000, Inst:        54641996
2400079822500: system.switch_cpus: Raw Gem5 Running in Cycle:        72100000, Inst:        54776821
2400129822500: system.switch_cpus: Raw Gem5 Running in Cycle:        72200000, Inst:        54937408
2400179822500: system.switch_cpus: Raw Gem5 Running in Cycle:        72300000, Inst:        55112102
2400229822500: system.switch_cpus: Raw Gem5 Running in Cycle:        72400000, Inst:        55288492
2400279822500: system.switch_cpus: Raw Gem5 Running in Cycle:        72500000, Inst:        55458580
2400329822500: system.switch_cpus: Raw Gem5 Running in Cycle:        72600000, Inst:        55623848
2400379822500: system.switch_cpus: Raw Gem5 Running in Cycle:        72700000, Inst:        55792105
2400429822500: system.switch_cpus: Raw Gem5 Running in Cycle:        72800000, Inst:        55962423
2400479822500: system.switch_cpus: Raw Gem5 Running in Cycle:        72900000, Inst:        56050006
2400529822500: system.switch_cpus: Raw Gem5 Running in Cycle:        73000000, Inst:        56099811
2400579822500: system.switch_cpus: Raw Gem5 Running in Cycle:        73100000, Inst:        56180976
2400629822500: system.switch_cpus: Raw Gem5 Running in Cycle:        73200000, Inst:        56331912
2400679822500: system.switch_cpus: Raw Gem5 Running in Cycle:        73300000, Inst:        56512102
2400729822500: system.switch_cpus: Raw Gem5 Running in Cycle:        73400000, Inst:        56692644
2400779822500: system.switch_cpus: Raw Gem5 Running in Cycle:        73500000, Inst:        56871250
2400829822500: system.switch_cpus: Raw Gem5 Running in Cycle:        73600000, Inst:        57048230
2400879822500: system.switch_cpus: Raw Gem5 Running in Cycle:        73700000, Inst:        57219378
2400929822500: system.switch_cpus: Raw Gem5 Running in Cycle:        73800000, Inst:        57390864
2400979822500: system.switch_cpus: Raw Gem5 Running in Cycle:        73900000, Inst:        57524766
2401029822500: system.switch_cpus: Raw Gem5 Running in Cycle:        74000000, Inst:        57576226
2401079822500: system.switch_cpus: Raw Gem5 Running in Cycle:        74100000, Inst:        57628644
2401129822500: system.switch_cpus: Raw Gem5 Running in Cycle:        74200000, Inst:        57773859
2401179822500: system.switch_cpus: Raw Gem5 Running in Cycle:        74300000, Inst:        57944358
2401229822500: system.switch_cpus: Raw Gem5 Running in Cycle:        74400000, Inst:        58110796
2401279822500: system.switch_cpus: Raw Gem5 Running in Cycle:        74500000, Inst:        58279830
2401329822500: system.switch_cpus: Raw Gem5 Running in Cycle:        74600000, Inst:        58456486
2401379822500: system.switch_cpus: Raw Gem5 Running in Cycle:        74700000, Inst:        58634374
2401429822500: system.switch_cpus: Raw Gem5 Running in Cycle:        74800000, Inst:        58804014
2401479822500: system.switch_cpus: Raw Gem5 Running in Cycle:        74900000, Inst:        58974907
2401529822500: system.switch_cpus: Raw Gem5 Running in Cycle:        75000000, Inst:        59042288
2401579822500: system.switch_cpus: Raw Gem5 Running in Cycle:        75100000, Inst:        59091869
2401629822500: system.switch_cpus: Raw Gem5 Running in Cycle:        75200000, Inst:        59185035
2401679822500: system.switch_cpus: Raw Gem5 Running in Cycle:        75300000, Inst:        59357951
2401729822500: system.switch_cpus: Raw Gem5 Running in Cycle:        75400000, Inst:        59530822
2401779822500: system.switch_cpus: Raw Gem5 Running in Cycle:        75500000, Inst:        59707308
2401829822500: system.switch_cpus: Raw Gem5 Running in Cycle:        75600000, Inst:        59877775
2401879822500: system.switch_cpus: Raw Gem5 Running in Cycle:        75700000, Inst:        60047104
2401929822500: system.switch_cpus: Raw Gem5 Running in Cycle:        75800000, Inst:        60223672
[...]
2406079822500: system.switch_cpus: Raw Gem5 Running in Cycle:        84100000, Inst:        72055782
2406129822500: system.switch_cpus: Raw Gem5 Running in Cycle:        84200000, Inst:        72229642
2406179822500: system.switch_cpus: Raw Gem5 Running in Cycle:        84300000, Inst:        72402506
2406229822500: system.switch_cpus: Raw Gem5 Running in Cycle:        84400000, Inst:        72465190
2406279822500: system.switch_cpus: Raw Gem5 Running in Cycle:        84500000, Inst:        72516276
2406329822500: system.switch_cpus: Raw Gem5 Running in Cycle:        84600000, Inst:        72617193
2406379822500: system.switch_cpus: Raw Gem5 Running in Cycle:        84700000, Inst:        72782122
2406429822500: system.switch_cpus: Raw Gem5 Running in Cycle:        84800000, Inst:        72951668
2406479822500: system.switch_cpus: Raw Gem5 Running in Cycle:        84900000, Inst:        73120607
2406529822500: system.switch_cpus: Raw Gem5 Running in Cycle:        85000000, Inst:        73282940
2406579822500: system.switch_cpus: Raw Gem5 Running in Cycle:        85100000, Inst:        73459354
2406629822500: system.switch_cpus: Raw Gem5 Running in Cycle:        85200000, Inst:        73633815
2406679822500: system.switch_cpus: Raw Gem5 Running in Cycle:        85300000, Inst:        73796804
2406729822500: system.switch_cpus: Raw Gem5 Running in Cycle:        85400000, Inst:        73927671
2406779822500: system.switch_cpus: Raw Gem5 Running in Cycle:        85500000, Inst:        73977899
2406829822500: system.switch_cpus: Raw Gem5 Running in Cycle:        85600000, Inst:        74027807
2406879822500: system.switch_cpus: Raw Gem5 Running in Cycle:        85700000, Inst:        74177275
2406929822500: system.switch_cpus: Raw Gem5 Running in Cycle:        85800000, Inst:        74351526
2406979822500: system.switch_cpus: Raw Gem5 Running in Cycle:        85900000, Inst:        74529325
2407029822500: system.switch_cpus: Raw Gem5 Running in Cycle:        86000000, Inst:        74707051
2407079822500: system.switch_cpus: Raw Gem5 Running in Cycle:        86100000, Inst:        74871864
2407129822500: system.switch_cpus: Raw Gem5 Running in Cycle:        86200000, Inst:        75050110
2407179822500: system.switch_cpus: Raw Gem5 Running in Cycle:        86300000, Inst:        75229260
2407229822500: system.switch_cpus: Raw Gem5 Running in Cycle:        86400000, Inst:        75403927
2407279822500: system.switch_cpus: Raw Gem5 Running in Cycle:        86500000, Inst:        75455196
2407329822500: system.switch_cpus: Raw Gem5 Running in Cycle:        86600000, Inst:        75505584
2407379822500: system.switch_cpus: Raw Gem5 Running in Cycle:        86700000, Inst:        75618137
2407429822500: system.switch_cpus: Raw Gem5 Running in Cycle:        86800000, Inst:        75793580
2407479822500: system.switch_cpus: Raw Gem5 Running in Cycle:        86900000, Inst:        75958328
2407529822500: system.switch_cpus: Raw Gem5 Running in Cycle:        87000000, Inst:        76127161
2407579822500: system.switch_cpus: Raw Gem5 Running in Cycle:        87100000, Inst:        76299754
2407629822500: system.switch_cpus: Raw Gem5 Running in Cycle:        87200000, Inst:        76469051
2407679822500: system.switch_cpus: Raw Gem5 Running in Cycle:        87300000, Inst:        76632312
2407729822500: system.switch_cpus: Raw Gem5 Running in Cycle:        87400000, Inst:        76808660
2407779822500: system.switch_cpus: Raw Gem5 Running in Cycle:        87500000, Inst:        76919066
2407829822500: system.switch_cpus: Raw Gem5 Running in Cycle:        87600000, Inst:        76968549
2407879822500: system.switch_cpus: Raw Gem5 Running in Cycle:        87700000, Inst:        77025350
2407929822500: system.switch_cpus: Raw Gem5 Running in Cycle:        87800000, Inst:        77196480
2407979822500: system.switch_cpus: Raw Gem5 Running in Cycle:        87900000, Inst:        77372514
2408029822500: system.switch_cpus: Raw Gem5 Running in Cycle:        88000000, Inst:        77547022
2408079822500: system.switch_cpus: Raw Gem5 Running in Cycle:        88100000, Inst:        77722116
2408129822500: system.switch_cpus: Raw Gem5 Running in Cycle:        88200000, Inst:        77901444
2408179822500: system.switch_cpus: Raw Gem5 Running in Cycle:        88300000, Inst:        78077506
2408229822500: system.switch_cpus: Raw Gem5 Running in Cycle:        88400000, Inst:        78251626
2408279822500: system.switch_cpus: Raw Gem5 Running in Cycle:        88500000, Inst:        78397049
2408329822500: system.switch_cpus: Raw Gem5 Running in Cycle:        88600000, Inst:        78447767
2408379822500: system.switch_cpus: Raw Gem5 Running in Cycle:        88700000, Inst:        78498986
2408429822500: system.switch_cpus: Raw Gem5 Running in Cycle:        88800000, Inst:        78628626
2408479822500: system.switch_cpus: Raw Gem5 Running in Cycle:        88900000, Inst:        78792460
2408529822500: system.switch_cpus: Raw Gem5 Running in Cycle:        89000000, Inst:        78970396
2408579822500: system.switch_cpus: Raw Gem5 Running in Cycle:        89100000, Inst:        79148108
2408629822500: system.switch_cpus: Raw Gem5 Running in Cycle:        89200000, Inst:        79318826
2408679822500: system.switch_cpus: Raw Gem5 Running in Cycle:        89300000, Inst:        79482806
2408729822500: system.switch_cpus: Raw Gem5 Running in Cycle:        89400000, Inst:        79649012
2408779822500: system.switch_cpus: Raw Gem5 Running in Cycle:        89500000, Inst:        79813024
2408829822500: system.switch_cpus: Raw Gem5 Running in Cycle:        89600000, Inst:        79907951
2408879822500: system.switch_cpus: Raw Gem5 Running in Cycle:        89700000, Inst:        79957700
2408929822500: system.switch_cpus: Raw Gem5 Running in Cycle:        89800000, Inst:        80037456
2408979822500: system.switch_cpus: Raw Gem5 Running in Cycle:        89900000, Inst:        80188698
2409029822500: system.switch_cpus: Raw Gem5 Running in Cycle:        90000000, Inst:        80367480
2409079822500: system.switch_cpus: Raw Gem5 Running in Cycle:        90100000, Inst:        80548198
2409129822500: system.switch_cpus: Raw Gem5 Running in Cycle:        90200000, Inst:        80729092
2409179822500: system.switch_cpus: Raw Gem5 Running in Cycle:        90300000, Inst:        80909808
2409229822500: system.switch_cpus: Raw Gem5 Running in Cycle:        90400000, Inst:        81083378
2409279822500: system.switch_cpus: Raw Gem5 Running in Cycle:        90500000, Inst:        81261351
2409329822500: system.switch_cpus: Raw Gem5 Running in Cycle:        90600000, Inst:        81387141
2409379822500: system.switch_cpus: Raw Gem5 Running in Cycle:        90700000, Inst:        81437644
2409429822500: system.switch_cpus: Raw Gem5 Running in Cycle:        90800000, Inst:        81490914
2409479822500: system.switch_cpus: Raw Gem5 Running in Cycle:        90900000, Inst:        81637355
2409529822500: system.switch_cpus: Raw Gem5 Running in Cycle:        91000000, Inst:        81807369
2409579822500: system.switch_cpus: Raw Gem5 Running in Cycle:        91100000, Inst:        81976340
2409629822500: system.switch_cpus: Raw Gem5 Running in Cycle:        91200000, Inst:        82140271
2409679822500: system.switch_cpus: Raw Gem5 Running in Cycle:        91300000, Inst:        82315750
2409729822500: system.switch_cpus: Raw Gem5 Running in Cycle:        91400000, Inst:        82489772
2409779822500: system.switch_cpus: Raw Gem5 Running in Cycle:        91500000, Inst:        82652521
2409829822500: system.switch_cpus: Raw Gem5 Running in Cycle:        91600000, Inst:        82822356
2409879822500: system.switch_cpus: Raw Gem5 Running in Cycle:        91700000, Inst:        82898354
2409929822500: system.switch_cpus: Raw Gem5 Running in Cycle:        91800000, Inst:        82948047
2409979822500: system.switch_cpus: Raw Gem5 Running in Cycle:        91900000, Inst:        83036254
2410029822500: system.switch_cpus: Raw Gem5 Running in Cycle:        92000000, Inst:        83203645
2410079822500: system.switch_cpus: Raw Gem5 Running in Cycle:        92100000, Inst:        83382304
2410129822500: system.switch_cpus: Raw Gem5 Running in Cycle:        92200000, Inst:        83559035
2410179822500: system.switch_cpus: Raw Gem5 Running in Cycle:        92300000, Inst:        83724892
2410229822500: system.switch_cpus: Raw Gem5 Running in Cycle:        92400000, Inst:        83903992
2410279822500: system.switch_cpus: Raw Gem5 Running in Cycle:        92500000, Inst:        84082584
2410329822500: system.switch_cpus: Raw Gem5 Running in Cycle:        92600000, Inst:        84261894
2410379822500: system.switch_cpus: Raw Gem5 Running in Cycle:        92700000, Inst:        84374579
2410429822500: system.switch_cpus: Raw Gem5 Running in Cycle:        92800000, Inst:        84425003
2410479822500: system.switch_cpus: Raw Gem5 Running in Cycle:        92900000, Inst:        84482428
2410529822500: system.switch_cpus: Raw Gem5 Running in Cycle:        93000000, Inst:        84643814
2410579822500: system.switch_cpus: Raw Gem5 Running in Cycle:        93100000, Inst:        84810416
2410629822500: system.switch_cpus: Raw Gem5 Running in Cycle:        93200000, Inst:        84980515
2410679822500: system.switch_cpus: Raw Gem5 Running in Cycle:        93300000, Inst:        85150565
2410729822500: system.switch_cpus: Raw Gem5 Running in Cycle:        93400000, Inst:        85308936
2410779822500: system.switch_cpus: Raw Gem5 Running in Cycle:        93500000, Inst:        85484842
2410829822500: system.switch_cpus: Raw Gem5 Running in Cycle:        93600000, Inst:        85660562
2410879822500: system.switch_cpus: Raw Gem5 Running in Cycle:        93700000, Inst:        85830894
2410929822500: system.switch_cpus: Raw Gem5 Running in Cycle:        93800000, Inst:        85886999
2410979822500: system.switch_cpus: Raw Gem5 Running in Cycle:        93900000, Inst:        85936916
2411029822500: system.switch_cpus: Raw Gem5 Running in Cycle:        94000000, Inst:        86038827
2411079822500: system.switch_cpus: Raw Gem5 Running in Cycle:        94100000, Inst:        86207978
2411129822500: system.switch_cpus: Raw Gem5 Running in Cycle:        94200000, Inst:        86382236
2411179822500: system.switch_cpus: Raw Gem5 Running in Cycle:        94300000, Inst:        86557776
2411229822500: system.switch_cpus: Raw Gem5 Running in Cycle:        94400000, Inst:        86732325
2411279822500: system.switch_cpus: Raw Gem5 Running in Cycle:        94500000, Inst:        86909013
2411329822500: system.switch_cpus: Raw Gem5 Running in Cycle:        94600000, Inst:        87082758
2411379822500: system.switch_cpus: Raw Gem5 Running in Cycle:        94700000, Inst:        87254853
2411429822500: system.switch_cpus: Raw Gem5 Running in Cycle:        94800000, Inst:        87363327
2411479822500: system.switch_cpus: Raw Gem5 Running in Cycle:        94900000, Inst:        87413244
2411529822500: system.switch_cpus: Raw Gem5 Running in Cycle:        95000000, Inst:        87488140
2411579822500: system.switch_cpus: Raw Gem5 Running in Cycle:        95100000, Inst:        87640700
2411629822500: system.switch_cpus: Raw Gem5 Running in Cycle:        95200000, Inst:        87813526
2411679822500: system.switch_cpus: Raw Gem5 Running in Cycle:        95300000, Inst:        87978918
2411729822500: system.switch_cpus: Raw Gem5 Running in Cycle:        95400000, Inst:        88151394
2411779822500: system.switch_cpus: Raw Gem5 Running in Cycle:        95500000, Inst:        88321319
2411829822500: system.switch_cpus: Raw Gem5 Running in Cycle:        95600000, Inst:        88492896
2411879822500: system.switch_cpus: Raw Gem5 Running in Cycle:        95700000, Inst:        88653619
2411929822500: system.switch_cpus: Raw Gem5 Running in Cycle:        95800000, Inst:        88825631
2411979822500: system.switch_cpus: Raw Gem5 Running in Cycle:        95900000, Inst:        88875315
2412029822500: system.switch_cpus: Raw Gem5 Running in Cycle:        96000000, Inst:        88925106
2412079822500: system.switch_cpus: Raw Gem5 Running in Cycle:        96100000, Inst:        89038840
2412129822500: system.switch_cpus: Raw Gem5 Running in Cycle:        96200000, Inst:        89217755
2412179822500: system.switch_cpus: Raw Gem5 Running in Cycle:        96300000, Inst:        89390648
2412229822500: system.switch_cpus: Raw Gem5 Running in Cycle:        96400000, Inst:        89566219
2412279822500: system.switch_cpus: Raw Gem5 Running in Cycle:        96500000, Inst:        89743039
2412329822500: system.switch_cpus: Raw Gem5 Running in Cycle:        96600000, Inst:        89919974
2412379822500: system.switch_cpus: Raw Gem5 Running in Cycle:        96700000, Inst:        90094023
2412429822500: system.switch_cpus: Raw Gem5 Running in Cycle:        96800000, Inst:        90272889
2412479822500: system.switch_cpus: Raw Gem5 Running in Cycle:        96900000, Inst:        90353996
2412529822500: system.switch_cpus: Raw Gem5 Running in Cycle:        97000000, Inst:        90404095
2412579822500: system.switch_cpus: Raw Gem5 Running in Cycle:        97100000, Inst:        90493729
2412629822500: system.switch_cpus: Raw Gem5 Running in Cycle:        97200000, Inst:        90654784
2412679822500: system.switch_cpus: Raw Gem5 Running in Cycle:        97300000, Inst:        90815302
2412729822500: system.switch_cpus: Raw Gem5 Running in Cycle:        97400000, Inst:        90991714
2412779822500: system.switch_cpus: Raw Gem5 Running in Cycle:        97500000, Inst:        91167652
2412829822500: system.switch_cpus: Raw Gem5 Running in Cycle:        97600000, Inst:        91331654
2412879822500: system.switch_cpus: Raw Gem5 Running in Cycle:        97700000, Inst:        91497535
2412929822500: system.switch_cpus: Raw Gem5 Running in Cycle:        97800000, Inst:        91665198
2412979822500: system.switch_cpus: Raw Gem5 Running in Cycle:        97900000, Inst:        91813931
2413029822500: system.switch_cpus: Raw Gem5 Running in Cycle:        98000000, Inst:        91863736
2413079822500: system.switch_cpus: Raw Gem5 Running in Cycle:        98100000, Inst:        91913541
2413129822500: system.switch_cpus: Raw Gem5 Running in Cycle:        98200000, Inst:        92029916
2413179822500: system.switch_cpus: Raw Gem5 Running in Cycle:        98300000, Inst:        92208432
2413229822500: system.switch_cpus: Raw Gem5 Running in Cycle:        98400000, Inst:        92389678
2413279822500: system.switch_cpus: Raw Gem5 Running in Cycle:        98500000, Inst:        92568284
2413329822500: system.switch_cpus: Raw Gem5 Running in Cycle:        98600000, Inst:        92746644
2413379822500: system.switch_cpus: Raw Gem5 Running in Cycle:        98700000, Inst:        92920296
2413429822500: system.switch_cpus: Raw Gem5 Running in Cycle:        98800000, Inst:        93097182
2413479822500: system.switch_cpus: Raw Gem5 Running in Cycle:        98900000, Inst:        93275042
2413529822500: system.switch_cpus: Raw Gem5 Running in Cycle:        99000000, Inst:        93341383
2413579822500: system.switch_cpus: Raw Gem5 Running in Cycle:        99100000, Inst:        93391981
2413629822500: system.switch_cpus: Raw Gem5 Running in Cycle:        99200000, Inst:        93482253
2413679822500: system.switch_cpus: Raw Gem5 Running in Cycle:        99300000, Inst:        93644831
2413729822500: system.switch_cpus: Raw Gem5 Running in Cycle:        99400000, Inst:        93809247
2413779822500: system.switch_cpus: Raw Gem5 Running in Cycle:        99500000, Inst:        93978272
2413829822500: system.switch_cpus: Raw Gem5 Running in Cycle:        99600000, Inst:        94155632
2413879822500: system.switch_cpus: Raw Gem5 Running in Cycle:        99700000, Inst:        94331056
2413929822500: system.switch_cpus: Raw Gem5 Running in Cycle:        99800000, Inst:        94492133
2413979822500: system.switch_cpus: Raw Gem5 Running in Cycle:        99900000, Inst:        94660282
2414029822500: system.switch_cpus: Raw Gem5 Running in Cycle:       100000000, Inst:        94800041
2414079822500: system.switch_cpus: Raw Gem5 Running in Cycle:       100100000, Inst:        94849734
2414129822500: system.switch_cpus: Raw Gem5 Running in Cycle:       100200000, Inst:        94899749
2414179822500: system.switch_cpus: Raw Gem5 Running in Cycle:       100300000, Inst:        95033455
2414229822500: system.switch_cpus: Raw Gem5 Running in Cycle:       100400000, Inst:        95203397
2414279822500: system.switch_cpus: Raw Gem5 Running in Cycle:       100500000, Inst:        95378994
2414329822500: system.switch_cpus: Raw Gem5 Running in Cycle:       100600000, Inst:        95558456
2414379822500: system.switch_cpus: Raw Gem5 Running in Cycle:       100700000, Inst:        95738646
2414429822500: system.switch_cpus: Raw Gem5 Running in Cycle:       100800000, Inst:        95918836
2414479822500: system.switch_cpus: Raw Gem5 Running in Cycle:       100900000, Inst:        96099664
2414529822500: system.switch_cpus: Raw Gem5 Running in Cycle:       101000000, Inst:        96278033
2414579822500: system.switch_cpus: Raw Gem5 Running in Cycle:       101100000, Inst:        96328527
2414629822500: system.switch_cpus: Raw Gem5 Running in Cycle:       101200000, Inst:        96379102
2414679822500: system.switch_cpus: Raw Gem5 Running in Cycle:       101300000, Inst:        96488288
2414729822500: system.switch_cpus: Raw Gem5 Running in Cycle:       101400000, Inst:        96655580
2414779822500: system.switch_cpus: Raw Gem5 Running in Cycle:       101500000, Inst:        96825390
2414829822500: system.switch_cpus: Raw Gem5 Running in Cycle:       101600000, Inst:        96993829
2414879822500: system.switch_cpus: Raw Gem5 Running in Cycle:       101700000, Inst:        97166082
2414929822500: system.switch_cpus: Raw Gem5 Running in Cycle:       101800000, Inst:        97327850
2414979822500: system.switch_cpus: Raw Gem5 Running in Cycle:       101900000, Inst:        97503992
2415029822500: system.switch_cpus: Raw Gem5 Running in Cycle:       102000000, Inst:        97680472
2415079822500: system.switch_cpus: Raw Gem5 Running in Cycle:       102100000, Inst:        97792556
2415129822500: system.switch_cpus: Raw Gem5 Running in Cycle:       102200000, Inst:        97842585
2415179822500: system.switch_cpus: Raw Gem5 Running in Cycle:       102300000, Inst:        97896768
2415229822500: system.switch_cpus: Raw Gem5 Running in Cycle:       102400000, Inst:        98053350
2415279822500: system.switch_cpus: Raw Gem5 Running in Cycle:       102500000, Inst:        98227381
2415329822500: system.switch_cpus: Raw Gem5 Running in Cycle:       102600000, Inst:        98402541
2415379822500: system.switch_cpus: Raw Gem5 Running in Cycle:       102700000, Inst:        98578452
2415429822500: system.switch_cpus: Raw Gem5 Running in Cycle:       102800000, Inst:        98757022
2415479822500: system.switch_cpus: Raw Gem5 Running in Cycle:       102900000, Inst:        98930621
2415529822500: system.switch_cpus: Raw Gem5 Running in Cycle:       103000000, Inst:        99108775
2415579822500: system.switch_cpus: Raw Gem5 Running in Cycle:       103100000, Inst:        99269780
2415629822500: system.switch_cpus: Raw Gem5 Running in Cycle:       103200000, Inst:        99320610
2415679822500: system.switch_cpus: Raw Gem5 Running in Cycle:       103300000, Inst:        99371062
2415729822500: system.switch_cpus: Raw Gem5 Running in Cycle:       103400000, Inst:        99487308
2415779822500: system.switch_cpus: Raw Gem5 Running in Cycle:       103500000, Inst:        99663426
2415829822500: system.switch_cpus: Raw Gem5 Running in Cycle:       103600000, Inst:        99836479
Exiting @ tick 2415879646500 because a thread reached the max instruction count
end time:(year-mon-day hour-minute-second)19-03-30 23-16-41
