
---------- Begin Simulation Statistics ----------
final_tick                               2415879646500                       # Number of ticks from beginning of simulation (restored from checkpoints and never reset)
host_inst_rate                                 201448                       # Simulator instruction rate (inst/s)
host_mem_usage                                8532228                       # Number of bytes of host memory used
host_op_rate                                   201448                       # Simulator op (including micro ops) rate (op/s)
host_seconds                                   496.41                       # Real time elapsed on the host
host_tick_rate                              104471911                       # Simulator tick rate (ticks/s)
sim_freq                                 1000000000000                       # Frequency of simulated ticks
sim_insts                                   100000023                       # Number of instructions simulated
sim_ops                                     100000023                       # Number of ops (including micro ops) simulated
sim_seconds                                  0.051860                       # Number of seconds simulated
sim_ticks                                 51860465250                       # Number of ticks simulated
system.clk_domain.clock                          1000                       # Clock period in ticks
system.cpu.committedInsts                          19                       # Number of instructions committed
system.cpu.committedOps                            19                       # Number of ops (including micro ops) committed
system.cpu.dcache.LoadLockedReq_accesses::.switch_cpus.data           72                       # number of LoadLockedReq accesses(hits+misses)
system.cpu.dcache.LoadLockedReq_accesses::total           72                       # number of LoadLockedReq accesses(hits+misses)
system.cpu.dcache.LoadLockedReq_avg_miss_latency::.switch_cpus.data        92000                       # average LoadLockedReq miss latency
system.cpu.dcache.LoadLockedReq_avg_miss_latency::total        92000                       # average LoadLockedReq miss latency
system.cpu.dcache.LoadLockedReq_avg_mshr_miss_latency::.switch_cpus.data        91000                       # average LoadLockedReq mshr miss latency
system.cpu.dcache.LoadLockedReq_avg_mshr_miss_latency::total        91000                       # average LoadLockedReq mshr miss latency
system.cpu.dcache.LoadLockedReq_hits::.switch_cpus.data           71                       # number of LoadLockedReq hits
system.cpu.dcache.LoadLockedReq_hits::total           71                       # number of LoadLockedReq hits
system.cpu.dcache.LoadLockedReq_miss_latency::.switch_cpus.data        92000                       # number of LoadLockedReq miss cycles
system.cpu.dcache.LoadLockedReq_miss_latency::total        92000                       # number of LoadLockedReq miss cycles
system.cpu.dcache.LoadLockedReq_miss_rate::.switch_cpus.data     0.013889                       # miss rate for LoadLockedReq accesses
system.cpu.dcache.LoadLockedReq_miss_rate::total     0.013889                       # miss rate for LoadLockedReq accesses
system.cpu.dcache.LoadLockedReq_misses::.switch_cpus.data            1                       # number of LoadLockedReq misses
system.cpu.dcache.LoadLockedReq_misses::total            1                       # number of LoadLockedReq misses
system.cpu.dcache.LoadLockedReq_mshr_miss_latency::.switch_cpus.data        91000                       # number of LoadLockedReq MSHR miss cycles
system.cpu.dcache.LoadLockedReq_mshr_miss_latency::total        91000                       # number of LoadLockedReq MSHR miss cycles
system.cpu.dcache.LoadLockedReq_mshr_miss_rate::.switch_cpus.data     0.013889                       # mshr miss rate for LoadLockedReq accesses
system.cpu.dcache.LoadLockedReq_mshr_miss_rate::total     0.013889                       # mshr miss rate for LoadLockedReq accesses
system.cpu.dcache.LoadLockedReq_mshr_misses::.switch_cpus.data            1                       # number of LoadLockedReq MSHR misses
system.cpu.dcache.LoadLockedReq_mshr_misses::total            1                       # number of LoadLockedReq MSHR misses
system.cpu.dcache.ReadReq_accesses::.cpu.data            6                       # number of ReadReq accesses(hits+misses)
system.cpu.dcache.ReadReq_accesses::.switch_cpus.data     28664778                       # number of ReadReq accesses(hits+misses)
system.cpu.dcache.ReadReq_accesses::total     28664784                       # number of ReadReq accesses(hits+misses)
system.cpu.dcache.ReadReq_avg_miss_latency::.switch_cpus.data 56038.871352                       # average ReadReq miss latency
system.cpu.dcache.ReadReq_avg_miss_latency::total 56038.798004                       # average ReadReq miss latency
system.cpu.dcache.ReadReq_avg_mshr_miss_latency::.switch_cpus.data 60789.993636                       # average ReadReq mshr miss latency
system.cpu.dcache.ReadReq_avg_mshr_miss_latency::total 60789.993636                       # average ReadReq mshr miss latency
system.cpu.dcache.ReadReq_hits::.switch_cpus.data     24080708                       # number of ReadReq hits
system.cpu.dcache.ReadReq_hits::total        24080708                       # number of ReadReq hits
system.cpu.dcache.ReadReq_miss_latency::.switch_cpus.data 256886109000                       # number of ReadReq miss cycles
system.cpu.dcache.ReadReq_miss_latency::total 256886109000                       # number of ReadReq miss cycles
system.cpu.dcache.ReadReq_miss_rate::.cpu.data            1                       # miss rate for ReadReq accesses
system.cpu.dcache.ReadReq_miss_rate::.switch_cpus.data     0.159920                       # miss rate for ReadReq accesses
system.cpu.dcache.ReadReq_miss_rate::total     0.159920                       # miss rate for ReadReq accesses
system.cpu.dcache.ReadReq_misses::.cpu.data            6                       # number of ReadReq misses
system.cpu.dcache.ReadReq_misses::.switch_cpus.data      4584070                       # number of ReadReq misses
system.cpu.dcache.ReadReq_misses::total       4584076                       # number of ReadReq misses
system.cpu.dcache.ReadReq_mshr_hits::.switch_cpus.data      3111817                       # number of ReadReq MSHR hits
system.cpu.dcache.ReadReq_mshr_hits::total      3111817                       # number of ReadReq MSHR hits
system.cpu.dcache.ReadReq_mshr_miss_latency::.switch_cpus.data  89498250500                       # number of ReadReq MSHR miss cycles
system.cpu.dcache.ReadReq_mshr_miss_latency::total  89498250500                       # number of ReadReq MSHR miss cycles
system.cpu.dcache.ReadReq_mshr_miss_rate::.switch_cpus.data     0.051361                       # mshr miss rate for ReadReq accesses
system.cpu.dcache.ReadReq_mshr_miss_rate::total     0.051361                       # mshr miss rate for ReadReq accesses
system.cpu.dcache.ReadReq_mshr_misses::.switch_cpus.data      1472253                       # number of ReadReq MSHR misses
system.cpu.dcache.ReadReq_mshr_misses::total      1472253                       # number of ReadReq MSHR misses
system.cpu.dcache.StoreCondReq_accesses::.switch_cpus.data           72                       # number of StoreCondReq accesses(hits+misses)
system.cpu.dcache.StoreCondReq_accesses::total           72                       # number of StoreCondReq accesses(hits+misses)
system.cpu.dcache.StoreCondReq_hits::.switch_cpus.data           72                       # number of StoreCondReq hits
system.cpu.dcache.StoreCondReq_hits::total           72                       # number of StoreCondReq hits
system.cpu.dcache.WriteReq_accesses::.cpu.data            1                       # number of WriteReq accesses(hits+misses)
system.cpu.dcache.WriteReq_accesses::.switch_cpus.data      5689864                       # number of WriteReq accesses(hits+misses)
system.cpu.dcache.WriteReq_accesses::total      5689865                       # number of WriteReq accesses(hits+misses)
system.cpu.dcache.WriteReq_avg_miss_latency::.switch_cpus.data 66398.254673                       # average WriteReq miss latency
system.cpu.dcache.WriteReq_avg_miss_latency::total 66398.228195                       # average WriteReq miss latency
system.cpu.dcache.WriteReq_avg_mshr_miss_latency::.switch_cpus.data 74840.262375                       # average WriteReq mshr miss latency
system.cpu.dcache.WriteReq_avg_mshr_miss_latency::total 74840.262375                       # average WriteReq mshr miss latency
system.cpu.dcache.WriteReq_hits::.switch_cpus.data      3182200                       # number of WriteReq hits
system.cpu.dcache.WriteReq_hits::total        3182200                       # number of WriteReq hits
system.cpu.dcache.WriteReq_miss_latency::.switch_cpus.data 166504512906                       # number of WriteReq miss cycles
system.cpu.dcache.WriteReq_miss_latency::total 166504512906                       # number of WriteReq miss cycles
system.cpu.dcache.WriteReq_miss_rate::.cpu.data            1                       # miss rate for WriteReq accesses
system.cpu.dcache.WriteReq_miss_rate::.switch_cpus.data     0.440725                       # miss rate for WriteReq accesses
system.cpu.dcache.WriteReq_miss_rate::total     0.440725                       # miss rate for WriteReq accesses
system.cpu.dcache.WriteReq_misses::.cpu.data            1                       # number of WriteReq misses
system.cpu.dcache.WriteReq_misses::.switch_cpus.data      2507664                       # number of WriteReq misses
system.cpu.dcache.WriteReq_misses::total      2507665                       # number of WriteReq misses
system.cpu.dcache.WriteReq_mshr_hits::.switch_cpus.data      2069730                       # number of WriteReq MSHR hits
system.cpu.dcache.WriteReq_mshr_hits::total      2069730                       # number of WriteReq MSHR hits
system.cpu.dcache.WriteReq_mshr_miss_latency::.switch_cpus.data  32775095463                       # number of WriteReq MSHR miss cycles
system.cpu.dcache.WriteReq_mshr_miss_latency::total  32775095463                       # number of WriteReq MSHR miss cycles
system.cpu.dcache.WriteReq_mshr_miss_rate::.switch_cpus.data     0.076967                       # mshr miss rate for WriteReq accesses
system.cpu.dcache.WriteReq_mshr_miss_rate::total     0.076967                       # mshr miss rate for WriteReq accesses
system.cpu.dcache.WriteReq_mshr_misses::.switch_cpus.data       437934                       # number of WriteReq MSHR misses
system.cpu.dcache.WriteReq_mshr_misses::total       437934                       # number of WriteReq MSHR misses
system.cpu.dcache.avg_blocked_cycles::no_mshrs    38.532960                       # average number of cycles each access was blocked
system.cpu.dcache.avg_blocked_cycles::no_targets          nan                       # average number of cycles each access was blocked
system.cpu.dcache.blocked::no_mshrs           1021417                       # number of cycles access was blocked
system.cpu.dcache.blocked::no_targets               0                       # number of cycles access was blocked
system.cpu.dcache.blocked_cycles::no_mshrs     39358220                       # number of cycles access was blocked
system.cpu.dcache.blocked_cycles::no_targets            0                       # number of cycles access was blocked
system.cpu.dcache.demand_accesses::.cpu.data            7                       # number of demand (read+write) accesses
system.cpu.dcache.demand_accesses::.switch_cpus.data     34354642                       # number of demand (read+write) accesses
system.cpu.dcache.demand_accesses::total     34354649                       # number of demand (read+write) accesses
system.cpu.dcache.demand_avg_miss_latency::.switch_cpus.data 59701.988527                       # average overall miss latency
system.cpu.dcache.demand_avg_miss_latency::total 59701.929598                       # average overall miss latency
system.cpu.dcache.demand_avg_mshr_miss_latency::.switch_cpus.data 64011.191555                       # average overall mshr miss latency
system.cpu.dcache.demand_avg_mshr_miss_latency::total 64011.191555                       # average overall mshr miss latency
system.cpu.dcache.demand_hits::.switch_cpus.data     27262908                       # number of demand (read+write) hits
system.cpu.dcache.demand_hits::total         27262908                       # number of demand (read+write) hits
system.cpu.dcache.demand_miss_latency::.switch_cpus.data 423390621906                       # number of demand (read+write) miss cycles
system.cpu.dcache.demand_miss_latency::total 423390621906                       # number of demand (read+write) miss cycles
system.cpu.dcache.demand_miss_rate::.cpu.data            1                       # miss rate for demand accesses
system.cpu.dcache.demand_miss_rate::.switch_cpus.data     0.206427                       # miss rate for demand accesses
system.cpu.dcache.demand_miss_rate::total     0.206427                       # miss rate for demand accesses
system.cpu.dcache.demand_misses::.cpu.data            7                       # number of demand (read+write) misses
system.cpu.dcache.demand_misses::.switch_cpus.data      7091734                       # number of demand (read+write) misses
system.cpu.dcache.demand_misses::total        7091741                       # number of demand (read+write) misses
system.cpu.dcache.demand_mshr_hits::.switch_cpus.data      5181547                       # number of demand (read+write) MSHR hits
system.cpu.dcache.demand_mshr_hits::total      5181547                       # number of demand (read+write) MSHR hits
system.cpu.dcache.demand_mshr_miss_latency::.switch_cpus.data 122273345963                       # number of demand (read+write) MSHR miss cycles
system.cpu.dcache.demand_mshr_miss_latency::total 122273345963                       # number of demand (read+write) MSHR miss cycles
system.cpu.dcache.demand_mshr_miss_rate::.switch_cpus.data     0.055602                       # mshr miss rate for demand accesses
system.cpu.dcache.demand_mshr_miss_rate::total     0.055602                       # mshr miss rate for demand accesses
system.cpu.dcache.demand_mshr_misses::.switch_cpus.data      1910187                       # number of demand (read+write) MSHR misses
system.cpu.dcache.demand_mshr_misses::total      1910187                       # number of demand (read+write) MSHR misses
system.cpu.dcache.overall_accesses::.cpu.data            7                       # number of overall (read+write) accesses
system.cpu.dcache.overall_accesses::.switch_cpus.data     34354642                       # number of overall (read+write) accesses
system.cpu.dcache.overall_accesses::total     34354649                       # number of overall (read+write) accesses
system.cpu.dcache.overall_avg_miss_latency::.switch_cpus.data 59701.988527                       # average overall miss latency
system.cpu.dcache.overall_avg_miss_latency::total 59701.929598                       # average overall miss latency
system.cpu.dcache.overall_avg_mshr_miss_latency::.switch_cpus.data 64011.191555                       # average overall mshr miss latency
system.cpu.dcache.overall_avg_mshr_miss_latency::total 64011.191555                       # average overall mshr miss latency
system.cpu.dcache.overall_hits::.switch_cpus.data     27262908                       # number of overall hits
system.cpu.dcache.overall_hits::total        27262908                       # number of overall hits
system.cpu.dcache.overall_miss_latency::.switch_cpus.data 423390621906                       # number of overall miss cycles
system.cpu.dcache.overall_miss_latency::total 423390621906                       # number of overall miss cycles
system.cpu.dcache.overall_miss_rate::.cpu.data            1                       # miss rate for overall accesses
system.cpu.dcache.overall_miss_rate::.switch_cpus.data     0.206427                       # miss rate for overall accesses
system.cpu.dcache.overall_miss_rate::total     0.206427                       # miss rate for overall accesses
system.cpu.dcache.overall_misses::.cpu.data            7                       # number of overall misses
system.cpu.dcache.overall_misses::.switch_cpus.data      7091734                       # number of overall misses
system.cpu.dcache.overall_misses::total       7091741                       # number of overall misses
system.cpu.dcache.overall_mshr_hits::.switch_cpus.data      5181547                       # number of overall MSHR hits
system.cpu.dcache.overall_mshr_hits::total      5181547                       # number of overall MSHR hits
system.cpu.dcache.overall_mshr_miss_latency::.switch_cpus.data 122273345963                       # number of overall MSHR miss cycles
system.cpu.dcache.overall_mshr_miss_latency::total 122273345963                       # number of overall MSHR miss cycles
system.cpu.dcache.overall_mshr_miss_rate::.switch_cpus.data     0.055602                       # mshr miss rate for overall accesses
system.cpu.dcache.overall_mshr_miss_rate::total     0.055602                       # mshr miss rate for overall accesses
system.cpu.dcache.overall_mshr_misses::.switch_cpus.data      1910187                       # number of overall MSHR misses
system.cpu.dcache.overall_mshr_misses::total      1910187                       # number of overall MSHR misses
system.cpu.dcache.pwrStateResidencyTicks::UNDEFINED 2415879646500                       # Cumulative time (in ticks) in various power states
system.cpu.dcache.replacements                1909683                       # number of replacements
system.cpu.dcache.tags.age_task_id_blocks_1024::0          329                       # Occupied blocks per task id
system.cpu.dcache.tags.age_task_id_blocks_1024::1          162                       # Occupied blocks per task id
system.cpu.dcache.tags.age_task_id_blocks_1024::2           21                       # Occupied blocks per task id
system.cpu.dcache.tags.avg_refs             15.272392                       # Average number of references to valid blocks.
system.cpu.dcache.tags.data_accesses        276748539                       # Number of data accesses
system.cpu.dcache.tags.occ_blocks::.cpu.data     0.007487                       # Average occupied blocks per requestor
system.cpu.dcache.tags.occ_blocks::.switch_cpus.data   511.859645                       # Average occupied blocks per requestor
system.cpu.dcache.tags.occ_percent::.cpu.data     0.000015                       # Average percentage of cache occupancy
system.cpu.dcache.tags.occ_percent::.switch_cpus.data     0.999726                       # Average percentage of cache occupancy
system.cpu.dcache.tags.occ_percent::total     0.999740                       # Average percentage of cache occupancy
system.cpu.dcache.tags.occ_task_id_blocks::1024          512                       # Occupied blocks per task id
system.cpu.dcache.tags.occ_task_id_percent::1024            1                       # Percentage of cache occupancy per task id
system.cpu.dcache.tags.pwrStateResidencyTicks::UNDEFINED 2415879646500                       # Cumulative time (in ticks) in various power states
system.cpu.dcache.tags.sampled_refs           1910195                       # Sample count of references to valid blocks.
system.cpu.dcache.tags.tag_accesses         276748539                       # Number of tag accesses
system.cpu.dcache.tags.tagsinuse           511.867132                       # Cycle average of tags in use
system.cpu.dcache.tags.total_refs            29173246                       # Total number of references to valid blocks.
system.cpu.dcache.tags.warmup_cycle      2364019182000                       # Cycle when the warmup percentage was hit.
system.cpu.dcache.writebacks::.writebacks       598026                       # number of writebacks
system.cpu.dcache.writebacks::total            598026                       # number of writebacks
system.cpu.dtb.data_accesses                        7                       # DTB accesses
system.cpu.dtb.data_acv                             0                       # DTB access violations
system.cpu.dtb.data_hits                            7                       # DTB hits
system.cpu.dtb.data_misses                          0                       # DTB misses
system.cpu.dtb.fetch_accesses                       0                       # ITB accesses
system.cpu.dtb.fetch_acv                            0                       # ITB acv
system.cpu.dtb.fetch_hits                           0                       # ITB hits
system.cpu.dtb.fetch_misses                         0                       # ITB misses
system.cpu.dtb.pwrStateResidencyTicks::UNDEFINED 2415879646500                       # Cumulative time (in ticks) in various power states
system.cpu.dtb.read_accesses                        6                       # DTB read accesses
system.cpu.dtb.read_acv                             0                       # DTB read access violations
system.cpu.dtb.read_hits                            6                       # DTB read hits
system.cpu.dtb.read_misses                          0                       # DTB read misses
system.cpu.dtb.write_accesses                       1                       # DTB write accesses
system.cpu.dtb.write_acv                            0                       # DTB write access violations
system.cpu.dtb.write_hits                           1                       # DTB write hits
system.cpu.dtb.write_misses                         0                       # DTB write misses
system.cpu.icache.ReadReq_accesses::.cpu.inst           19                       # number of ReadReq accesses(hits+misses)
system.cpu.icache.ReadReq_accesses::.switch_cpus.inst     10604273                       # number of ReadReq accesses(hits+misses)
system.cpu.icache.ReadReq_accesses::total     10604292                       # number of ReadReq accesses(hits+misses)
system.cpu.icache.ReadReq_avg_miss_latency::.switch_cpus.inst        81850                       # average ReadReq miss latency
system.cpu.icache.ReadReq_avg_miss_latency::total 81442.786070                       # average ReadReq miss latency
system.cpu.icache.ReadReq_avg_mshr_miss_latency::.switch_cpus.inst 90989.510490                       # average ReadReq mshr miss latency
system.cpu.icache.ReadReq_avg_mshr_miss_latency::total 90989.510490                       # average ReadReq mshr miss latency
system.cpu.icache.ReadReq_hits::.cpu.inst           17                       # number of ReadReq hits
system.cpu.icache.ReadReq_hits::.switch_cpus.inst     10603873                       # number of ReadReq hits
system.cpu.icache.ReadReq_hits::total        10603890                       # number of ReadReq hits
system.cpu.icache.ReadReq_miss_latency::.switch_cpus.inst     32740000                       # number of ReadReq miss cycles
system.cpu.icache.ReadReq_miss_latency::total     32740000                       # number of ReadReq miss cycles
system.cpu.icache.ReadReq_miss_rate::.cpu.inst     0.105263                       # miss rate for ReadReq accesses
system.cpu.icache.ReadReq_miss_rate::.switch_cpus.inst     0.000038                       # miss rate for ReadReq accesses
system.cpu.icache.ReadReq_miss_rate::total     0.000038                       # miss rate for ReadReq accesses
system.cpu.icache.ReadReq_misses::.cpu.inst            2                       # number of ReadReq misses
system.cpu.icache.ReadReq_misses::.switch_cpus.inst          400                       # number of ReadReq misses
system.cpu.icache.ReadReq_misses::total           402                       # number of ReadReq misses
system.cpu.icache.ReadReq_mshr_hits::.switch_cpus.inst          114                       # number of ReadReq MSHR hits
system.cpu.icache.ReadReq_mshr_hits::total          114                       # number of ReadReq MSHR hits
system.cpu.icache.ReadReq_mshr_miss_latency::.switch_cpus.inst     26023000                       # number of ReadReq MSHR miss cycles
system.cpu.icache.ReadReq_mshr_miss_latency::total     26023000                       # number of ReadReq MSHR miss cycles
system.cpu.icache.ReadReq_mshr_miss_rate::.switch_cpus.inst     0.000027                       # mshr miss rate for ReadReq accesses
system.cpu.icache.ReadReq_mshr_miss_rate::total     0.000027                       # mshr miss rate for ReadReq accesses
system.cpu.icache.ReadReq_mshr_misses::.switch_cpus.inst          286                       # number of ReadReq MSHR misses
system.cpu.icache.ReadReq_mshr_misses::total          286                       # number of ReadReq MSHR misses
system.cpu.icache.avg_blocked_cycles::no_mshrs            3                       # average number of cycles each access was blocked
system.cpu.icache.avg_blocked_cycles::no_targets          nan                       # average number of cycles each access was blocked
system.cpu.icache.blocked::no_mshrs                 1                       # number of cycles access was blocked
system.cpu.icache.blocked::no_targets               0                       # number of cycles access was blocked
system.cpu.icache.blocked_cycles::no_mshrs            3                       # number of cycles access was blocked
system.cpu.icache.blocked_cycles::no_targets            0                       # number of cycles access was blocked
system.cpu.icache.demand_accesses::.cpu.inst           19                       # number of demand (read+write) accesses
system.cpu.icache.demand_accesses::.switch_cpus.inst     10604273                       # number of demand (read+write) accesses
system.cpu.icache.demand_accesses::total     10604292                       # number of demand (read+write) accesses
system.cpu.icache.demand_avg_miss_latency::.switch_cpus.inst        81850                       # average overall miss latency
system.cpu.icache.demand_avg_miss_latency::total 81442.786070                       # average overall miss latency
system.cpu.icache.demand_avg_mshr_miss_latency::.switch_cpus.inst 90989.510490                       # average overall mshr miss latency
system.cpu.icache.demand_avg_mshr_miss_latency::total 90989.510490                       # average overall mshr miss latency
system.cpu.icache.demand_hits::.cpu.inst           17                       # number of demand (read+write) hits
system.cpu.icache.demand_hits::.switch_cpus.inst     10603873                       # number of demand (read+write) hits
system.cpu.icache.demand_hits::total         10603890                       # number of demand (read+write) hits
system.cpu.icache.demand_miss_latency::.switch_cpus.inst     32740000                       # number of demand (read+write) miss cycles
system.cpu.icache.demand_miss_latency::total     32740000                       # number of demand (read+write) miss cycles
system.cpu.icache.demand_miss_rate::.cpu.inst     0.105263                       # miss rate for demand accesses
system.cpu.icache.demand_miss_rate::.switch_cpus.inst     0.000038                       # miss rate for demand accesses
system.cpu.icache.demand_miss_rate::total     0.000038                       # miss rate for demand accesses
system.cpu.icache.demand_misses::.cpu.inst            2                       # number of demand (read+write) misses
system.cpu.icache.demand_misses::.switch_cpus.inst          400                       # number of demand (read+write) misses
system.cpu.icache.demand_misses::total            402                       # number of demand (read+write) misses
system.cpu.icache.demand_mshr_hits::.switch_cpus.inst          114                       # number of demand (read+write) MSHR hits
system.cpu.icache.demand_mshr_hits::total          114                       # number of demand (read+write) MSHR hits
system.cpu.icache.demand_mshr_miss_latency::.switch_cpus.inst     26023000                       # number of demand (read+write) MSHR miss cycles
system.cpu.icache.demand_mshr_miss_latency::total     26023000                       # number of demand (read+write) MSHR miss cycles
system.cpu.icache.demand_mshr_miss_rate::.switch_cpus.inst     0.000027                       # mshr miss rate for demand accesses
system.cpu.icache.demand_mshr_miss_rate::total     0.000027                       # mshr miss rate for demand accesses
system.cpu.icache.demand_mshr_misses::.switch_cpus.inst          286                       # number of demand (read+write) MSHR misses
system.cpu.icache.demand_mshr_misses::total          286                       # number of demand (read+write) MSHR misses
system.cpu.icache.overall_accesses::.cpu.inst           19                       # number of overall (read+write) accesses
system.cpu.icache.overall_accesses::.switch_cpus.inst     10604273                       # number of overall (read+write) accesses
system.cpu.icache.overall_accesses::total     10604292                       # number of overall (read+write) accesses
system.cpu.icache.overall_avg_miss_latency::.switch_cpus.inst        81850                       # average overall miss latency
system.cpu.icache.overall_avg_miss_latency::total 81442.786070                       # average overall miss latency
system.cpu.icache.overall_avg_mshr_miss_latency::.switch_cpus.inst 90989.510490                       # average overall mshr miss latency
system.cpu.icache.overall_avg_mshr_miss_latency::total 90989.510490                       # average overall mshr miss latency
system.cpu.icache.overall_hits::.cpu.inst           17                       # number of overall hits
system.cpu.icache.overall_hits::.switch_cpus.inst     10603873                       # number of overall hits
system.cpu.icache.overall_hits::total        10603890                       # number of overall hits
system.cpu.icache.overall_miss_latency::.switch_cpus.inst     32740000                       # number of overall miss cycles
system.cpu.icache.overall_miss_latency::total     32740000                       # number of overall miss cycles
system.cpu.icache.overall_miss_rate::.cpu.inst     0.105263                       # miss rate for overall accesses
system.cpu.icache.overall_miss_rate::.switch_cpus.inst     0.000038                       # miss rate for overall accesses
system.cpu.icache.overall_miss_rate::total     0.000038                       # miss rate for overall accesses
system.cpu.icache.overall_misses::.cpu.inst            2                       # number of overall misses
system.cpu.icache.overall_misses::.switch_cpus.inst          400                       # number of overall misses
system.cpu.icache.overall_misses::total           402                       # number of overall misses
system.cpu.icache.overall_mshr_hits::.switch_cpus.inst          114                       # number of overall MSHR hits
system.cpu.icache.overall_mshr_hits::total          114                       # number of overall MSHR hits
system.cpu.icache.overall_mshr_miss_latency::.switch_cpus.inst     26023000                       # number of overall MSHR miss cycles
system.cpu.icache.overall_mshr_miss_latency::total     26023000                       # number of overall MSHR miss cycles
system.cpu.icache.overall_mshr_miss_rate::.switch_cpus.inst     0.000027                       # mshr miss rate for overall accesses
system.cpu.icache.overall_mshr_miss_rate::total     0.000027                       # mshr miss rate for overall accesses
system.cpu.icache.overall_mshr_misses::.switch_cpus.inst          286                       # number of overall MSHR misses
system.cpu.icache.overall_mshr_misses::total          286                       # number of overall MSHR misses
system.cpu.icache.pwrStateResidencyTicks::UNDEFINED 2415879646500                       # Cumulative time (in ticks) in various power states
system.cpu.icache.replacements                      0                       # number of replacements
system.cpu.icache.tags.age_task_id_blocks_1024::4          288                       # Occupied blocks per task id
system.cpu.icache.tags.avg_refs          36820.062500                       # Average number of references to valid blocks.
system.cpu.icache.tags.data_accesses         84834624                       # Number of data accesses
system.cpu.icache.tags.occ_blocks::.cpu.inst     2.000000                       # Average occupied blocks per requestor
system.cpu.icache.tags.occ_blocks::.switch_cpus.inst   225.520698                       # Average occupied blocks per requestor
system.cpu.icache.tags.occ_percent::.cpu.inst     0.003906                       # Average percentage of cache occupancy
system.cpu.icache.tags.occ_percent::.switch_cpus.inst     0.440470                       # Average percentage of cache occupancy
system.cpu.icache.tags.occ_percent::total     0.444376                       # Average percentage of cache occupancy
system.cpu.icache.tags.occ_task_id_blocks::1024          288                       # Occupied blocks per task id
system.cpu.icache.tags.occ_task_id_percent::1024     0.562500                       # Percentage of cache occupancy per task id
system.cpu.icache.tags.pwrStateResidencyTicks::UNDEFINED 2415879646500                       # Cumulative time (in ticks) in various power states
system.cpu.icache.tags.sampled_refs               288                       # Sample count of references to valid blocks.
system.cpu.icache.tags.tag_accesses          84834624                       # Number of tag accesses
system.cpu.icache.tags.tagsinuse           227.520698                       # Cycle average of tags in use
system.cpu.icache.tags.total_refs            10604178                       # Total number of references to valid blocks.
system.cpu.icache.tags.warmup_cycle      2364019182000                       # Cycle when the warmup percentage was hit.
system.cpu.idle_fraction                            0                       # Percentage of idle cycles
system.cpu.itb.data_accesses                        0                       # DTB accesses
system.cpu.itb.data_acv                             0                       # DTB access violations
system.cpu.itb.data_hits                            0                       # DTB hits
system.cpu.itb.data_misses                          0                       # DTB misses
system.cpu.itb.fetch_accesses                      19                       # ITB accesses
system.cpu.itb.fetch_acv                            0                       # ITB acv
system.cpu.itb.fetch_hits                          19                       # ITB hits
system.cpu.itb.fetch_misses                         0                       # ITB misses
system.cpu.itb.pwrStateResidencyTicks::UNDEFINED 2415879646500                       # Cumulative time (in ticks) in various power states
system.cpu.itb.read_accesses                        0                       # DTB read accesses
system.cpu.itb.read_acv                             0                       # DTB read access violations
system.cpu.itb.read_hits                            0                       # DTB read hits
system.cpu.itb.read_misses                          0                       # DTB read misses
system.cpu.itb.write_accesses                       0                       # DTB write accesses
system.cpu.itb.write_acv                            0                       # DTB write access violations
system.cpu.itb.write_hits                           0                       # DTB write hits
system.cpu.itb.write_misses                         0                       # DTB write misses
system.cpu.not_idle_fraction                        1                       # Percentage of non-idle cycles
system.cpu.numCycles                               19                       # number of cpu cycles simulated
system.cpu.numPwrStateTransitions                   1                       # Number of power state transitions
system.cpu.numWorkItemsCompleted                    0                       # number of work items this cpu completed
system.cpu.numWorkItemsStarted                      0                       # number of work items this cpu started
system.cpu.num_busy_cycles                         19                       # Number of busy cycles
system.cpu.num_conditional_control_insts            0                       # number of instructions that are conditional controls
system.cpu.num_fp_alu_accesses                      7                       # Number of float alu accesses
system.cpu.num_fp_insts                             7                       # number of float instructions
system.cpu.num_fp_register_reads                    3                       # number of times the floating registers were read
system.cpu.num_fp_register_writes                   6                       # number of times the floating registers were written
system.cpu.num_func_calls                           0                       # number of times a function call or return occured
system.cpu.num_idle_cycles                          0                       # Number of idle cycles
system.cpu.num_int_alu_accesses                    18                       # Number of integer alu accesses
system.cpu.num_int_insts                           18                       # number of integer instructions
system.cpu.num_int_register_reads                  26                       # number of times the integer registers were read
system.cpu.num_int_register_writes                 12                       # number of times the integer registers were written
system.cpu.num_load_insts                           6                       # Number of load instructions
system.cpu.num_mem_refs                             7                       # number of memory refs
system.cpu.num_store_insts                          1                       # Number of store instructions
system.cpu.num_vec_alu_accesses                     0                       # Number of vector alu accesses
system.cpu.num_vec_insts                            0                       # number of vector instructions
system.cpu.num_vec_register_reads                   0                       # number of times the vector registers were read
system.cpu.num_vec_register_writes                  0                       # number of times the vector registers were written
system.cpu.op_class::No_OpClass                     0      0.00%      0.00% # Class of executed instruction
system.cpu.op_class::IntAlu                        11     57.89%     57.89% # Class of executed instruction
system.cpu.op_class::IntMult                        0      0.00%     57.89% # Class of executed instruction
system.cpu.op_class::IntDiv                         0      0.00%     57.89% # Class of executed instruction
system.cpu.op_class::FloatAdd                       0      0.00%     57.89% # Class of executed instruction
system.cpu.op_class::FloatCmp                       0      0.00%     57.89% # Class of executed instruction
system.cpu.op_class::FloatCvt                       0      0.00%     57.89% # Class of executed instruction
system.cpu.op_class::FloatMult                      0      0.00%     57.89% # Class of executed instruction
system.cpu.op_class::FloatMultAcc                   0      0.00%     57.89% # Class of executed instruction
system.cpu.op_class::FloatDiv                       1      5.26%     63.16% # Class of executed instruction
system.cpu.op_class::FloatMisc                      0      0.00%     63.16% # Class of executed instruction
system.cpu.op_class::FloatSqrt                      0      0.00%     63.16% # Class of executed instruction
system.cpu.op_class::SimdAdd                        0      0.00%     63.16% # Class of executed instruction
system.cpu.op_class::SimdAddAcc                     0      0.00%     63.16% # Class of executed instruction
system.cpu.op_class::SimdAlu                        0      0.00%     63.16% # Class of executed instruction
system.cpu.op_class::SimdCmp                        0      0.00%     63.16% # Class of executed instruction
system.cpu.op_class::SimdCvt                        0      0.00%     63.16% # Class of executed instruction
system.cpu.op_class::SimdMisc                       0      0.00%     63.16% # Class of executed instruction
system.cpu.op_class::SimdMult                       0      0.00%     63.16% # Class of executed instruction
system.cpu.op_class::SimdMultAcc                    0      0.00%     63.16% # Class of executed instruction
system.cpu.op_class::SimdShift                      0      0.00%     63.16% # Class of executed instruction
system.cpu.op_class::SimdShiftAcc                   0      0.00%     63.16% # Class of executed instruction
system.cpu.op_class::SimdSqrt                       0      0.00%     63.16% # Class of executed instruction
system.cpu.op_class::SimdFloatAdd                   0      0.00%     63.16% # Class of executed instruction
system.cpu.op_class::SimdFloatAlu                   0      0.00%     63.16% # Class of executed instruction
system.cpu.op_class::SimdFloatCmp                   0      0.00%     63.16% # Class of executed instruction
system.cpu.op_class::SimdFloatCvt                   0      0.00%     63.16% # Class of executed instruction
system.cpu.op_class::SimdFloatDiv                   0      0.00%     63.16% # Class of executed instruction
system.cpu.op_class::SimdFloatMisc                  0      0.00%     63.16% # Class of executed instruction
system.cpu.op_class::SimdFloatMult                  0      0.00%     63.16% # Class of executed instruction
system.cpu.op_class::SimdFloatMultAcc               0      0.00%     63.16% # Class of executed instruction
system.cpu.op_class::SimdFloatSqrt                  0      0.00%     63.16% # Class of executed instruction
system.cpu.op_class::SimdAes                        0      0.00%     63.16% # Class of executed instruction
system.cpu.op_class::SimdAesMix                     0      0.00%     63.16% # Class of executed instruction
system.cpu.op_class::SimdSha1Hash                   0      0.00%     63.16% # Class of executed instruction
system.cpu.op_class::SimdSha1Hash2                  0      0.00%     63.16% # Class of executed instruction
system.cpu.op_class::SimdSha256Hash                 0      0.00%     63.16% # Class of executed instruction
system.cpu.op_class::SimdSha256Hash2                0      0.00%     63.16% # Class of executed instruction
system.cpu.op_class::SimdShaSigma2                  0      0.00%     63.16% # Class of executed instruction
system.cpu.op_class::SimdShaSigma3                  0      0.00%     63.16% # Class of executed instruction
system.cpu.op_class::MemRead                        1      5.26%     68.42% # Class of executed instruction
system.cpu.op_class::MemWrite                       0      0.00%     68.42% # Class of executed instruction
system.cpu.op_class::FloatMemRead                   5     26.32%     94.74% # Class of executed instruction
system.cpu.op_class::FloatMemWrite                  1      5.26%    100.00% # Class of executed instruction
system.cpu.op_class::IprAccess                      0      0.00%    100.00% # Class of executed instruction
system.cpu.op_class::InstPrefetch                   0      0.00%    100.00% # Class of executed instruction
system.cpu.op_class::total                         19                       # Class of executed instruction
system.cpu.pwrStateResidencyTicks::ON           10000                       # Cumulative time (in ticks) in various power states
system.cpu.pwrStateResidencyTicks::OFF    51860455250                       # Cumulative time (in ticks) in various power states
system.cpu.workload.numSyscalls                     0                       # Number of system calls
system.cpu_clk_domain.clock                       500                       # Clock period in ticks
system.cpu_voltage_domain.voltage                   1                       # Voltage in Volts
system.l2.CleanEvict_mshr_miss_rate::.writebacks          inf                       # mshr miss rate for CleanEvict accesses
system.l2.CleanEvict_mshr_miss_rate::total          inf                       # mshr miss rate for CleanEvict accesses
system.l2.CleanEvict_mshr_misses::.writebacks            1                       # number of CleanEvict MSHR misses
system.l2.CleanEvict_mshr_misses::total             1                       # number of CleanEvict MSHR misses
system.l2.InvalidateReq_accesses::.switch_cpus.data            1                       # number of InvalidateReq accesses(hits+misses)
system.l2.InvalidateReq_accesses::total             1                       # number of InvalidateReq accesses(hits+misses)
system.l2.InvalidateReq_avg_mshr_miss_latency::.switch_cpus.data        18500                       # average InvalidateReq mshr miss latency
system.l2.InvalidateReq_avg_mshr_miss_latency::total        18500                       # average InvalidateReq mshr miss latency
system.l2.InvalidateReq_miss_rate::.switch_cpus.data            1                       # miss rate for InvalidateReq accesses
system.l2.InvalidateReq_miss_rate::total            1                       # miss rate for InvalidateReq accesses
system.l2.InvalidateReq_misses::.switch_cpus.data            1                       # number of InvalidateReq misses
system.l2.InvalidateReq_misses::total               1                       # number of InvalidateReq misses
system.l2.InvalidateReq_mshr_miss_latency::.switch_cpus.data        18500                       # number of InvalidateReq MSHR miss cycles
system.l2.InvalidateReq_mshr_miss_latency::total        18500                       # number of InvalidateReq MSHR miss cycles
system.l2.InvalidateReq_mshr_miss_rate::.switch_cpus.data            1                       # mshr miss rate for InvalidateReq accesses
system.l2.InvalidateReq_mshr_miss_rate::total            1                       # mshr miss rate for InvalidateReq accesses
system.l2.InvalidateReq_mshr_misses::.switch_cpus.data            1                       # number of InvalidateReq MSHR misses
system.l2.InvalidateReq_mshr_misses::total            1                       # number of InvalidateReq MSHR misses
system.l2.ReadCleanReq_accesses::.cpu.inst            2                       # number of ReadCleanReq accesses(hits+misses)
system.l2.ReadCleanReq_accesses::.switch_cpus.inst          286                       # number of ReadCleanReq accesses(hits+misses)
system.l2.ReadCleanReq_accesses::total            288                       # number of ReadCleanReq accesses(hits+misses)
system.l2.ReadCleanReq_avg_miss_latency::.switch_cpus.inst 89473.776224                       # average ReadCleanReq miss latency
system.l2.ReadCleanReq_avg_miss_latency::total 88852.430556                       # average ReadCleanReq miss latency
system.l2.ReadCleanReq_avg_mshr_miss_latency::.switch_cpus.inst 79473.776224                       # average ReadCleanReq mshr miss latency
system.l2.ReadCleanReq_avg_mshr_miss_latency::total 79473.776224                       # average ReadCleanReq mshr miss latency
system.l2.ReadCleanReq_miss_latency::.switch_cpus.inst     25589500                       # number of ReadCleanReq miss cycles
system.l2.ReadCleanReq_miss_latency::total     25589500                       # number of ReadCleanReq miss cycles
system.l2.ReadCleanReq_miss_rate::.cpu.inst            1                       # miss rate for ReadCleanReq accesses
system.l2.ReadCleanReq_miss_rate::.switch_cpus.inst            1                       # miss rate for ReadCleanReq accesses
system.l2.ReadCleanReq_miss_rate::total             1                       # miss rate for ReadCleanReq accesses
system.l2.ReadCleanReq_misses::.cpu.inst            2                       # number of ReadCleanReq misses
system.l2.ReadCleanReq_misses::.switch_cpus.inst          286                       # number of ReadCleanReq misses
system.l2.ReadCleanReq_misses::total              288                       # number of ReadCleanReq misses
system.l2.ReadCleanReq_mshr_miss_latency::.switch_cpus.inst     22729500                       # number of ReadCleanReq MSHR miss cycles
system.l2.ReadCleanReq_mshr_miss_latency::total     22729500                       # number of ReadCleanReq MSHR miss cycles
system.l2.ReadCleanReq_mshr_miss_rate::.switch_cpus.inst            1                       # mshr miss rate for ReadCleanReq accesses
system.l2.ReadCleanReq_mshr_miss_rate::total     0.993056                       # mshr miss rate for ReadCleanReq accesses
system.l2.ReadCleanReq_mshr_misses::.switch_cpus.inst          286                       # number of ReadCleanReq MSHR misses
system.l2.ReadCleanReq_mshr_misses::total          286                       # number of ReadCleanReq MSHR misses
system.l2.ReadExReq_accesses::.cpu.data             1                       # number of ReadExReq accesses(hits+misses)
system.l2.ReadExReq_accesses::.switch_cpus.data       437933                       # number of ReadExReq accesses(hits+misses)
system.l2.ReadExReq_accesses::total            437934                       # number of ReadExReq accesses(hits+misses)
system.l2.ReadExReq_avg_miss_latency::.switch_cpus.data 103741.310210                       # average ReadExReq miss latency
system.l2.ReadExReq_avg_miss_latency::total 103740.957861                       # average ReadExReq miss latency
system.l2.ReadExReq_avg_mshr_miss_latency::.switch_cpus.data 93741.310210                       # average ReadExReq mshr miss latency
system.l2.ReadExReq_avg_mshr_miss_latency::total 93741.310210                       # average ReadExReq mshr miss latency
system.l2.ReadExReq_hits::.switch_cpus.data       143507                       # number of ReadExReq hits
system.l2.ReadExReq_hits::total                143507                       # number of ReadExReq hits
system.l2.ReadExReq_miss_latency::.switch_cpus.data  30544139000                       # number of ReadExReq miss cycles
system.l2.ReadExReq_miss_latency::total   30544139000                       # number of ReadExReq miss cycles
system.l2.ReadExReq_miss_rate::.cpu.data            1                       # miss rate for ReadExReq accesses
system.l2.ReadExReq_miss_rate::.switch_cpus.data     0.672308                       # miss rate for ReadExReq accesses
system.l2.ReadExReq_miss_rate::total         0.672309                       # miss rate for ReadExReq accesses
system.l2.ReadExReq_misses::.cpu.data               1                       # number of ReadExReq misses
system.l2.ReadExReq_misses::.switch_cpus.data       294426                       # number of ReadExReq misses
system.l2.ReadExReq_misses::total              294427                       # number of ReadExReq misses
system.l2.ReadExReq_mshr_miss_latency::.switch_cpus.data  27599879000                       # number of ReadExReq MSHR miss cycles
system.l2.ReadExReq_mshr_miss_latency::total  27599879000                       # number of ReadExReq MSHR miss cycles
system.l2.ReadExReq_mshr_miss_rate::.switch_cpus.data     0.672308                       # mshr miss rate for ReadExReq accesses
system.l2.ReadExReq_mshr_miss_rate::total     0.672307                       # mshr miss rate for ReadExReq accesses
system.l2.ReadExReq_mshr_misses::.switch_cpus.data       294426                       # number of ReadExReq MSHR misses
system.l2.ReadExReq_mshr_misses::total         294426                       # number of ReadExReq MSHR misses
system.l2.ReadSharedReq_accesses::.cpu.data            6                       # number of ReadSharedReq accesses(hits+misses)
system.l2.ReadSharedReq_accesses::.switch_cpus.data      1472254                       # number of ReadSharedReq accesses(hits+misses)
system.l2.ReadSharedReq_accesses::total       1472260                       # number of ReadSharedReq accesses(hits+misses)
system.l2.ReadSharedReq_avg_miss_latency::.switch_cpus.data 101325.501458                       # average ReadSharedReq miss latency
system.l2.ReadSharedReq_avg_miss_latency::total 101324.730489                       # average ReadSharedReq miss latency
system.l2.ReadSharedReq_avg_mshr_miss_latency::.switch_cpus.data 91325.501458                       # average ReadSharedReq mshr miss latency
system.l2.ReadSharedReq_avg_mshr_miss_latency::total 91325.501458                       # average ReadSharedReq mshr miss latency
system.l2.ReadSharedReq_hits::.switch_cpus.data       683703                       # number of ReadSharedReq hits
system.l2.ReadSharedReq_hits::total            683703                       # number of ReadSharedReq hits
system.l2.ReadSharedReq_miss_latency::.switch_cpus.data  79900325500                       # number of ReadSharedReq miss cycles
system.l2.ReadSharedReq_miss_latency::total  79900325500                       # number of ReadSharedReq miss cycles
system.l2.ReadSharedReq_miss_rate::.cpu.data            1                       # miss rate for ReadSharedReq accesses
system.l2.ReadSharedReq_miss_rate::.switch_cpus.data     0.535608                       # miss rate for ReadSharedReq accesses
system.l2.ReadSharedReq_miss_rate::total     0.535610                       # miss rate for ReadSharedReq accesses
system.l2.ReadSharedReq_misses::.cpu.data            6                       # number of ReadSharedReq misses
system.l2.ReadSharedReq_misses::.switch_cpus.data       788551                       # number of ReadSharedReq misses
system.l2.ReadSharedReq_misses::total          788557                       # number of ReadSharedReq misses
system.l2.ReadSharedReq_mshr_miss_latency::.switch_cpus.data  72014815500                       # number of ReadSharedReq MSHR miss cycles
system.l2.ReadSharedReq_mshr_miss_latency::total  72014815500                       # number of ReadSharedReq MSHR miss cycles
system.l2.ReadSharedReq_mshr_miss_rate::.switch_cpus.data     0.535608                       # mshr miss rate for ReadSharedReq accesses
system.l2.ReadSharedReq_mshr_miss_rate::total     0.535606                       # mshr miss rate for ReadSharedReq accesses
system.l2.ReadSharedReq_mshr_misses::.switch_cpus.data       788551                       # number of ReadSharedReq MSHR misses
system.l2.ReadSharedReq_mshr_misses::total       788551                       # number of ReadSharedReq MSHR misses
system.l2.WritebackDirty_accesses::.writebacks       598026                       # number of WritebackDirty accesses(hits+misses)
system.l2.WritebackDirty_accesses::total       598026                       # number of WritebackDirty accesses(hits+misses)
system.l2.WritebackDirty_hits::.writebacks       598026                       # number of WritebackDirty hits
system.l2.WritebackDirty_hits::total           598026                       # number of WritebackDirty hits
system.l2.avg_blocked_cycles::no_mshrs            nan                       # average number of cycles each access was blocked
system.l2.avg_blocked_cycles::no_targets          nan                       # average number of cycles each access was blocked
system.l2.blocked::no_mshrs                         0                       # number of cycles access was blocked
system.l2.blocked::no_targets                       0                       # number of cycles access was blocked
system.l2.blocked_cycles::no_mshrs                  0                       # number of cycles access was blocked
system.l2.blocked_cycles::no_targets                0                       # number of cycles access was blocked
system.l2.demand_accesses::.cpu.inst                2                       # number of demand (read+write) accesses
system.l2.demand_accesses::.cpu.data                7                       # number of demand (read+write) accesses
system.l2.demand_accesses::.switch_cpus.inst          286                       # number of demand (read+write) accesses
system.l2.demand_accesses::.switch_cpus.data      1910187                       # number of demand (read+write) accesses
system.l2.demand_accesses::total              1910482                       # number of demand (read+write) accesses
system.l2.demand_avg_miss_latency::.switch_cpus.inst 89473.776224                       # average overall miss latency
system.l2.demand_avg_miss_latency::.switch_cpus.data 101982.280787                       # average overall miss latency
system.l2.demand_avg_miss_latency::total 101978.131070                       # average overall miss latency
system.l2.demand_avg_mshr_miss_latency::.switch_cpus.inst 79473.776224                       # average overall mshr miss latency
system.l2.demand_avg_mshr_miss_latency::.switch_cpus.data 91982.280787                       # average overall mshr miss latency
system.l2.demand_avg_mshr_miss_latency::total 91978.978328                       # average overall mshr miss latency
system.l2.demand_hits::.switch_cpus.data       827210                       # number of demand (read+write) hits
system.l2.demand_hits::total                   827210                       # number of demand (read+write) hits
system.l2.demand_miss_latency::.switch_cpus.inst     25589500                       # number of demand (read+write) miss cycles
system.l2.demand_miss_latency::.switch_cpus.data 110444464500                       # number of demand (read+write) miss cycles
system.l2.demand_miss_latency::total     110470054000                       # number of demand (read+write) miss cycles
system.l2.demand_miss_rate::.cpu.inst               1                       # miss rate for demand accesses
system.l2.demand_miss_rate::.cpu.data               1                       # miss rate for demand accesses
system.l2.demand_miss_rate::.switch_cpus.inst            1                       # miss rate for demand accesses
system.l2.demand_miss_rate::.switch_cpus.data     0.566948                       # miss rate for demand accesses
system.l2.demand_miss_rate::total            0.567015                       # miss rate for demand accesses
system.l2.demand_misses::.cpu.inst                  2                       # number of demand (read+write) misses
system.l2.demand_misses::.cpu.data                  7                       # number of demand (read+write) misses
system.l2.demand_misses::.switch_cpus.inst          286                       # number of demand (read+write) misses
system.l2.demand_misses::.switch_cpus.data      1082977                       # number of demand (read+write) misses
system.l2.demand_misses::total                1083272                       # number of demand (read+write) misses
system.l2.demand_mshr_miss_latency::.switch_cpus.inst     22729500                       # number of demand (read+write) MSHR miss cycles
system.l2.demand_mshr_miss_latency::.switch_cpus.data  99614694500                       # number of demand (read+write) MSHR miss cycles
system.l2.demand_mshr_miss_latency::total  99637424000                       # number of demand (read+write) MSHR miss cycles
system.l2.demand_mshr_miss_rate::.switch_cpus.inst            1                       # mshr miss rate for demand accesses
system.l2.demand_mshr_miss_rate::.switch_cpus.data     0.566948                       # mshr miss rate for demand accesses
system.l2.demand_mshr_miss_rate::total       0.567010                       # mshr miss rate for demand accesses
system.l2.demand_mshr_misses::.switch_cpus.inst          286                       # number of demand (read+write) MSHR misses
system.l2.demand_mshr_misses::.switch_cpus.data      1082977                       # number of demand (read+write) MSHR misses
system.l2.demand_mshr_misses::total           1083263                       # number of demand (read+write) MSHR misses
system.l2.overall_accesses::.cpu.inst               2                       # number of overall (read+write) accesses
system.l2.overall_accesses::.cpu.data               7                       # number of overall (read+write) accesses
system.l2.overall_accesses::.switch_cpus.inst          286                       # number of overall (read+write) accesses
system.l2.overall_accesses::.switch_cpus.data      1910187                       # number of overall (read+write) accesses
system.l2.overall_accesses::total             1910482                       # number of overall (read+write) accesses
system.l2.overall_avg_miss_latency::.switch_cpus.inst 89473.776224                       # average overall miss latency
system.l2.overall_avg_miss_latency::.switch_cpus.data 101982.280787                       # average overall miss latency
system.l2.overall_avg_miss_latency::total 101978.131070                       # average overall miss latency
system.l2.overall_avg_mshr_miss_latency::.switch_cpus.inst 79473.776224                       # average overall mshr miss latency
system.l2.overall_avg_mshr_miss_latency::.switch_cpus.data 91982.280787                       # average overall mshr miss latency
system.l2.overall_avg_mshr_miss_latency::total 91978.978328                       # average overall mshr miss latency
system.l2.overall_hits::.switch_cpus.data       827210                       # number of overall hits
system.l2.overall_hits::total                  827210                       # number of overall hits
system.l2.overall_miss_latency::.switch_cpus.inst     25589500                       # number of overall miss cycles
system.l2.overall_miss_latency::.switch_cpus.data 110444464500                       # number of overall miss cycles
system.l2.overall_miss_latency::total    110470054000                       # number of overall miss cycles
system.l2.overall_miss_rate::.cpu.inst              1                       # miss rate for overall accesses
system.l2.overall_miss_rate::.cpu.data              1                       # miss rate for overall accesses
system.l2.overall_miss_rate::.switch_cpus.inst            1                       # miss rate for overall accesses
system.l2.overall_miss_rate::.switch_cpus.data     0.566948                       # miss rate for overall accesses
system.l2.overall_miss_rate::total           0.567015                       # miss rate for overall accesses
system.l2.overall_misses::.cpu.inst                 2                       # number of overall misses
system.l2.overall_misses::.cpu.data                 7                       # number of overall misses
system.l2.overall_misses::.switch_cpus.inst          286                       # number of overall misses
system.l2.overall_misses::.switch_cpus.data      1082977                       # number of overall misses
system.l2.overall_misses::total               1083272                       # number of overall misses
system.l2.overall_mshr_miss_latency::.switch_cpus.inst     22729500                       # number of overall MSHR miss cycles
system.l2.overall_mshr_miss_latency::.switch_cpus.data  99614694500                       # number of overall MSHR miss cycles
system.l2.overall_mshr_miss_latency::total  99637424000                       # number of overall MSHR miss cycles
system.l2.overall_mshr_miss_rate::.switch_cpus.inst            1                       # mshr miss rate for overall accesses
system.l2.overall_mshr_miss_rate::.switch_cpus.data     0.566948                       # mshr miss rate for overall accesses
system.l2.overall_mshr_miss_rate::total      0.567010                       # mshr miss rate for overall accesses
system.l2.overall_mshr_misses::.switch_cpus.inst          286                       # number of overall MSHR misses
system.l2.overall_mshr_misses::.switch_cpus.data      1082977                       # number of overall MSHR misses
system.l2.overall_mshr_misses::total          1083263                       # number of overall MSHR misses
system.l2.pwrStateResidencyTicks::UNDEFINED 2415879646500                       # Cumulative time (in ticks) in various power states
system.l2.replacements                        1050513                       # number of replacements
system.l2.tags.age_task_id_blocks_1024::0           99                       # Occupied blocks per task id
system.l2.tags.age_task_id_blocks_1024::1          739                       # Occupied blocks per task id
system.l2.tags.age_task_id_blocks_1024::2         7922                       # Occupied blocks per task id
system.l2.tags.age_task_id_blocks_1024::3        22639                       # Occupied blocks per task id
system.l2.tags.age_task_id_blocks_1024::4         1369                       # Occupied blocks per task id
system.l2.tags.avg_refs                      3.526476                       # Average number of references to valid blocks.
system.l2.tags.data_accesses                 62205937                       # Number of data accesses
system.l2.tags.occ_blocks::.writebacks       0.547649                       # Average occupied blocks per requestor
system.l2.tags.occ_blocks::.cpu.inst         0.110992                       # Average occupied blocks per requestor
system.l2.tags.occ_blocks::.cpu.data         0.378639                       # Average occupied blocks per requestor
system.l2.tags.occ_blocks::.switch_cpus.inst     9.827092                       # Average occupied blocks per requestor
system.l2.tags.occ_blocks::.switch_cpus.data 32076.040287                       # Average occupied blocks per requestor
system.l2.tags.occ_percent::.writebacks      0.000017                       # Average percentage of cache occupancy
system.l2.tags.occ_percent::.cpu.inst        0.000003                       # Average percentage of cache occupancy
system.l2.tags.occ_percent::.cpu.data        0.000012                       # Average percentage of cache occupancy
system.l2.tags.occ_percent::.switch_cpus.inst     0.000300                       # Average percentage of cache occupancy
system.l2.tags.occ_percent::.switch_cpus.data     0.978883                       # Average percentage of cache occupancy
system.l2.tags.occ_percent::total            0.979215                       # Average percentage of cache occupancy
system.l2.tags.occ_task_id_blocks::1024         32768                       # Occupied blocks per task id
system.l2.tags.occ_task_id_percent::1024            1                       # Percentage of cache occupancy per task id
system.l2.tags.pwrStateResidencyTicks::UNDEFINED 2415879646500                       # Cumulative time (in ticks) in various power states
system.l2.tags.sampled_refs                   1083281                       # Sample count of references to valid blocks.
system.l2.tags.tag_accesses                  62205937                       # Number of tag accesses
system.l2.tags.tagsinuse                 32086.904659                       # Cycle average of tags in use
system.l2.tags.total_refs                     3820164                       # Total number of references to valid blocks.
system.l2.tags.warmup_cycle              2364019182000                       # Cycle when the warmup percentage was hit.
system.l2.writebacks::.writebacks              339954                       # number of writebacks
system.l2.writebacks::total                    339954                       # number of writebacks
system.mem_ctrls.avgBusLat                    5000.00                       # Average bus latency per DRAM burst
system.mem_ctrls.avgGap                      36438.70                       # Average gap between requests
system.mem_ctrls.avgMemAccLat                50704.38                       # Average memory access latency per DRAM burst
system.mem_ctrls.avgPriority_.writebacks::samples    339954.00                       # Average QoS priority value for accepted requests
system.mem_ctrls.avgPriority_.switch_cpus.inst::samples       286.00                       # Average QoS priority value for accepted requests
system.mem_ctrls.avgPriority_.switch_cpus.data::samples   1082934.00                       # Average QoS priority value for accepted requests
system.mem_ctrls.avgQLat                     31954.38                       # Average queueing delay per DRAM burst
system.mem_ctrls.avgRdBW                      1336.78                       # Average DRAM read bandwidth in MiByte/s
system.mem_ctrls.avgRdBWSys                   1336.83                       # Average system read bandwidth in MiByte/s
system.mem_ctrls.avgRdQLen                       2.14                       # Average read queue length when enqueuing
system.mem_ctrls.avgWrBW                       419.50                       # Average achieved write bandwidth in MiByte/s
system.mem_ctrls.avgWrBWSys                    419.53                       # Average system write bandwidth in MiByte/s
system.mem_ctrls.avgWrQLen                      24.89                       # Average write queue length when enqueuing
system.mem_ctrls.busUtil                        13.72                       # Data bus utilization in percentage
system.mem_ctrls.busUtilRead                    10.44                       # Data bus utilization in percentage for reads
system.mem_ctrls.busUtilWrite                    3.28                       # Data bus utilization in percentage for writes
system.mem_ctrls.bw_inst_read::.cpu.inst         2468                       # Instruction read bandwidth from this memory (bytes/s)
system.mem_ctrls.bw_inst_read::.switch_cpus.inst       352947                       # Instruction read bandwidth from this memory (bytes/s)
system.mem_ctrls.bw_inst_read::total           355415                       # Instruction read bandwidth from this memory (bytes/s)
system.mem_ctrls.bw_read::.cpu.inst              2468                       # Total read bandwidth from this memory (bytes/s)
system.mem_ctrls.bw_read::.cpu.data              8639                       # Total read bandwidth from this memory (bytes/s)
system.mem_ctrls.bw_read::.switch_cpus.inst       352947                       # Total read bandwidth from this memory (bytes/s)
system.mem_ctrls.bw_read::.switch_cpus.data   1336481030                       # Total read bandwidth from this memory (bytes/s)
system.mem_ctrls.bw_read::total            1336845084                       # Total read bandwidth from this memory (bytes/s)
system.mem_ctrls.bw_total::.writebacks      419530675                       # Total bandwidth to/from this memory (bytes/s)
system.mem_ctrls.bw_total::.cpu.inst             2468                       # Total bandwidth to/from this memory (bytes/s)
system.mem_ctrls.bw_total::.cpu.data             8639                       # Total bandwidth to/from this memory (bytes/s)
system.mem_ctrls.bw_total::.switch_cpus.inst       352947                       # Total bandwidth to/from this memory (bytes/s)
system.mem_ctrls.bw_total::.switch_cpus.data   1336481030                       # Total bandwidth to/from this memory (bytes/s)
system.mem_ctrls.bw_total::total           1756375759                       # Total bandwidth to/from this memory (bytes/s)
system.mem_ctrls.bw_write::.writebacks      419530675                       # Write bandwidth from this memory (bytes/s)
system.mem_ctrls.bw_write::total            419530675                       # Write bandwidth from this memory (bytes/s)
system.mem_ctrls.bytesPerActivate::samples       405957                       # Bytes accessed per row activation
system.mem_ctrls.bytesPerActivate::mean    224.362679                       # Bytes accessed per row activation
system.mem_ctrls.bytesPerActivate::gmean   114.050143                       # Bytes accessed per row activation
system.mem_ctrls.bytesPerActivate::stdev   320.185097                       # Bytes accessed per row activation
system.mem_ctrls.bytesPerActivate::0-127       288588     71.09%     71.09% # Bytes accessed per row activation
system.mem_ctrls.bytesPerActivate::128-255        29745      7.33%     78.42% # Bytes accessed per row activation
system.mem_ctrls.bytesPerActivate::256-383         9220      2.27%     80.69% # Bytes accessed per row activation
system.mem_ctrls.bytesPerActivate::384-511         9578      2.36%     83.05% # Bytes accessed per row activation
system.mem_ctrls.bytesPerActivate::512-639         9465      2.33%     85.38% # Bytes accessed per row activation
system.mem_ctrls.bytesPerActivate::640-767         6117      1.51%     86.88% # Bytes accessed per row activation
system.mem_ctrls.bytesPerActivate::768-895         5377      1.32%     88.21% # Bytes accessed per row activation
system.mem_ctrls.bytesPerActivate::896-1023         7446      1.83%     90.04% # Bytes accessed per row activation
system.mem_ctrls.bytesPerActivate::1024-1151        40421      9.96%    100.00% # Bytes accessed per row activation
system.mem_ctrls.bytesPerActivate::total       405957                       # Bytes accessed per row activation
system.mem_ctrls.bytesReadDRAM               69326080                       # Total number of bytes read from DRAM
system.mem_ctrls.bytesReadSys                69328832                       # Total read bytes from the system interface side
system.mem_ctrls.bytesReadWrQ                    2752                       # Total number of bytes read from write queue
system.mem_ctrls.bytesWritten                21755648                       # Total number of bytes written to DRAM
system.mem_ctrls.bytesWrittenSys             21757056                       # Total written bytes from the system interface side
system.mem_ctrls.bytes_inst_read::.cpu.inst          128                       # Number of instructions bytes read from this memory
system.mem_ctrls.bytes_inst_read::.switch_cpus.inst        18304                       # Number of instructions bytes read from this memory
system.mem_ctrls.bytes_inst_read::total         18432                       # Number of instructions bytes read from this memory
system.mem_ctrls.bytes_read::.cpu.inst            128                       # Number of bytes read from this memory
system.mem_ctrls.bytes_read::.cpu.data            448                       # Number of bytes read from this memory
system.mem_ctrls.bytes_read::.switch_cpus.inst        18304                       # Number of bytes read from this memory
system.mem_ctrls.bytes_read::.switch_cpus.data     69310528                       # Number of bytes read from this memory
system.mem_ctrls.bytes_read::total           69329408                       # Number of bytes read from this memory
system.mem_ctrls.bytes_written::.writebacks     21757056                       # Number of bytes written to this memory
system.mem_ctrls.bytes_written::total        21757056                       # Number of bytes written to this memory
system.mem_ctrls.masterReadAccesses::.switch_cpus.inst          286                       # Per-master read serviced memory accesses
system.mem_ctrls.masterReadAccesses::.switch_cpus.data      1082977                       # Per-master read serviced memory accesses
system.mem_ctrls.masterReadAvgLat::.switch_cpus.inst     38334.79                       # Per-master read average memory access latency
system.mem_ctrls.masterReadAvgLat::.switch_cpus.data     50705.64                       # Per-master read average memory access latency
system.mem_ctrls.masterReadBytes::.switch_cpus.inst        18304                       # Per-master bytes read from memory
system.mem_ctrls.masterReadBytes::.switch_cpus.data     69307776                       # Per-master bytes read from memory
system.mem_ctrls.masterReadRate::.switch_cpus.inst 352947.084291728388                       # Per-master bytes read from memory rate (Bytes/sec)
system.mem_ctrls.masterReadRate::.switch_cpus.data 1336427964.267057895660                       # Per-master bytes read from memory rate (Bytes/sec)
system.mem_ctrls.masterReadTotalLat::.switch_cpus.inst     10963750                       # Per-master read total memory access latency
system.mem_ctrls.masterReadTotalLat::.switch_cpus.data  54913039000                       # Per-master read total memory access latency
system.mem_ctrls.masterWriteAccesses::.writebacks       339954                       # Per-master write serviced memory accesses
system.mem_ctrls.masterWriteAvgLat::.writebacks   3642917.47                       # Per-master write average memory access latency
system.mem_ctrls.masterWriteBytes::.writebacks     21755648                       # Per-master bytes write to memory
system.mem_ctrls.masterWriteRate::.writebacks 419503525.375719606876                       # Per-master bytes write to memory rate (Bytes/sec)
system.mem_ctrls.masterWriteTotalLat::.writebacks 1238424364000                       # Per-master write total memory access latency
system.mem_ctrls.mergedWrBursts                     0                       # Number of DRAM write bursts merged with an existing one
system.mem_ctrls.neitherReadNorWriteReqs            0                       # Number of requests that are neither read nor write
system.mem_ctrls.numRdRetry                         0                       # Number of times read queue was full causing retry
system.mem_ctrls.numReadWriteTurnArounds        21093                       # Number of turnarounds from READ to WRITE
system.mem_ctrls.numStayReadState             2257884                       # Number of times bus staying in READ state
system.mem_ctrls.numStayWriteState             319774                       # Number of times bus staying in WRITE state
system.mem_ctrls.numWrRetry                         0                       # Number of times write queue was full causing retry
system.mem_ctrls.numWriteReadTurnArounds        21093                       # Number of turnarounds from WRITE to READ
system.mem_ctrls.num_reads::.cpu.inst               2                       # Number of read requests responded to by this memory
system.mem_ctrls.num_reads::.cpu.data               7                       # Number of read requests responded to by this memory
system.mem_ctrls.num_reads::.switch_cpus.inst          286                       # Number of read requests responded to by this memory
system.mem_ctrls.num_reads::.switch_cpus.data      1082977                       # Number of read requests responded to by this memory
system.mem_ctrls.num_reads::total             1083272                       # Number of read requests responded to by this memory
system.mem_ctrls.num_writes::.writebacks       339954                       # Number of write requests responded to by this memory
system.mem_ctrls.num_writes::total             339954                       # Number of write requests responded to by this memory
system.mem_ctrls.pageHitRate                    71.47                       # Row buffer hit rate, read and write combined
system.mem_ctrls.peakBW                      12800.00                       # Theoretical peak bandwidth in MiByte/s
system.mem_ctrls.perBankRdBursts::0             68794                       # Per bank write bursts
system.mem_ctrls.perBankRdBursts::1             68188                       # Per bank write bursts
system.mem_ctrls.perBankRdBursts::2             67331                       # Per bank write bursts
system.mem_ctrls.perBankRdBursts::3             66480                       # Per bank write bursts
system.mem_ctrls.perBankRdBursts::4             65834                       # Per bank write bursts
system.mem_ctrls.perBankRdBursts::5             65393                       # Per bank write bursts
system.mem_ctrls.perBankRdBursts::6             66394                       # Per bank write bursts
system.mem_ctrls.perBankRdBursts::7             67375                       # Per bank write bursts
system.mem_ctrls.perBankRdBursts::8             67350                       # Per bank write bursts
[...]
system.switch_cpus.iq.fu_full::IntMult        1491031     10.36%     10.37% # attempts to use FU when none available
system.switch_cpus.iq.fu_full::IntDiv               0      0.00%     10.37% # attempts to use FU when none available
system.switch_cpus.iq.fu_full::FloatAdd        126010      0.88%     11.25% # attempts to use FU when none available
system.switch_cpus.iq.fu_full::FloatCmp             0      0.00%     11.25% # attempts to use FU when none available
system.switch_cpus.iq.fu_full::FloatCvt             0      0.00%     11.25% # attempts to use FU when none available
system.switch_cpus.iq.fu_full::FloatMult      3629989     25.22%     36.46% # attempts to use FU when none available
system.switch_cpus.iq.fu_full::FloatMultAcc            0      0.00%     36.46% # attempts to use FU when none available
system.switch_cpus.iq.fu_full::FloatDiv       4090919     28.42%     64.88% # attempts to use FU when none available
system.switch_cpus.iq.fu_full::FloatMisc            0      0.00%     64.88% # attempts to use FU when none available
system.switch_cpus.iq.fu_full::FloatSqrt       809060      5.62%     70.50% # attempts to use FU when none available
system.switch_cpus.iq.fu_full::SimdAdd              0      0.00%     70.50% # attempts to use FU when none available
system.switch_cpus.iq.fu_full::SimdAddAcc            0      0.00%     70.50% # attempts to use FU when none available
system.switch_cpus.iq.fu_full::SimdAlu              0      0.00%     70.50% # attempts to use FU when none available
system.switch_cpus.iq.fu_full::SimdCmp              0      0.00%     70.50% # attempts to use FU when none available
system.switch_cpus.iq.fu_full::SimdCvt              0      0.00%     70.50% # attempts to use FU when none available
system.switch_cpus.iq.fu_full::SimdMisc             0      0.00%     70.50% # attempts to use FU when none available
system.switch_cpus.iq.fu_full::SimdMult             0      0.00%     70.50% # attempts to use FU when none available
system.switch_cpus.iq.fu_full::SimdMultAcc            0      0.00%     70.50% # attempts to use FU when none available
system.switch_cpus.iq.fu_full::SimdShift            0      0.00%     70.50% # attempts to use FU when none available
system.switch_cpus.iq.fu_full::SimdShiftAcc            0      0.00%     70.50% # attempts to use FU when none available
system.switch_cpus.iq.fu_full::SimdSqrt             0      0.00%     70.50% # attempts to use FU when none available
system.switch_cpus.iq.fu_full::SimdFloatAdd            0      0.00%     70.50% # attempts to use FU when none available
system.switch_cpus.iq.fu_full::SimdFloatAlu            0      0.00%     70.50% # attempts to use FU when none available
system.switch_cpus.iq.fu_full::SimdFloatCmp            0      0.00%     70.50% # attempts to use FU when none available
system.switch_cpus.iq.fu_full::SimdFloatCvt            0      0.00%     70.50% # attempts to use FU when none available
system.switch_cpus.iq.fu_full::SimdFloatDiv            0      0.00%     70.50% # attempts to use FU when none available
system.switch_cpus.iq.fu_full::SimdFloatMisc            0      0.00%     70.50% # attempts to use FU when none available
system.switch_cpus.iq.fu_full::SimdFloatMult            0      0.00%     70.50% # attempts to use FU when none available
system.switch_cpus.iq.fu_full::SimdFloatMultAcc            0      0.00%     70.50% # attempts to use FU when none available
system.switch_cpus.iq.fu_full::SimdFloatSqrt            0      0.00%     70.50% # attempts to use FU when none available
system.switch_cpus.iq.fu_full::SimdAes              0      0.00%     70.50% # attempts to use FU when none available
system.switch_cpus.iq.fu_full::SimdAesMix            0      0.00%     70.50% # attempts to use FU when none available
system.switch_cpus.iq.fu_full::SimdSha1Hash            0      0.00%     70.50% # attempts to use FU when none available
system.switch_cpus.iq.fu_full::SimdSha1Hash2            0      0.00%     70.50% # attempts to use FU when none available
system.switch_cpus.iq.fu_full::SimdSha256Hash            0      0.00%     70.50% # attempts to use FU when none available
system.switch_cpus.iq.fu_full::SimdSha256Hash2            0      0.00%     70.50% # attempts to use FU when none available
system.switch_cpus.iq.fu_full::SimdShaSigma2            0      0.00%     70.50% # attempts to use FU when none available
system.switch_cpus.iq.fu_full::SimdShaSigma3            0      0.00%     70.50% # attempts to use FU when none available
system.switch_cpus.iq.fu_full::MemRead        1904972     13.23%     83.73% # attempts to use FU when none available
system.switch_cpus.iq.fu_full::MemWrite         10267      0.07%     83.80% # attempts to use FU when none available
system.switch_cpus.iq.fu_full::FloatMemRead      2331323     16.19%    100.00% # attempts to use FU when none available
system.switch_cpus.iq.fu_full::FloatMemWrite          121      0.00%    100.00% # attempts to use FU when none available
system.switch_cpus.iq.fu_full::IprAccess            0      0.00%    100.00% # attempts to use FU when none available
system.switch_cpus.iq.fu_full::InstPrefetch            0      0.00%    100.00% # attempts to use FU when none available
system.switch_cpus.iq.int_alu_accesses       70556192                       # Number of integer alu accesses
system.switch_cpus.iq.int_inst_queue_reads    241420937                       # Number of integer instruction queue reads
system.switch_cpus.iq.int_inst_queue_wakeup_accesses     63892856                       # Number of integer instruction queue wakeup accesses
system.switch_cpus.iq.int_inst_queue_writes     66055409                       # Number of integer instruction queue writes
system.switch_cpus.iq.iqInstsAdded          103281115                       # Number of instructions added to the IQ (excludes non-spec)
system.switch_cpus.iq.iqInstsIssued         114211281                       # Number of instructions issued
system.switch_cpus.iq.iqNonSpecInstsAdded          160                       # Number of non-speculative instructions added to the IQ
system.switch_cpus.iq.iqSquashedInstsExamined      3281206                       # Number of squashed instructions iterated over during squash; mainly for profiling
system.switch_cpus.iq.iqSquashedInstsIssued        46767                       # Number of squashed instructions issued
system.switch_cpus.iq.iqSquashedNonSpecRemoved           16                       # Number of squashed non-spec instructions that were removed
system.switch_cpus.iq.iqSquashedOperandsExamined      1531876                       # Number of squashed operands that are examined and possibly removed from graph
system.switch_cpus.iq.issued_per_cycle::samples    103699649                       # Number of insts issued each cycle
system.switch_cpus.iq.issued_per_cycle::mean     1.101366                       # Number of insts issued each cycle
system.switch_cpus.iq.issued_per_cycle::stdev     1.989212                       # Number of insts issued each cycle
system.switch_cpus.iq.issued_per_cycle::underflows            0      0.00%      0.00% # Number of insts issued each cycle
system.switch_cpus.iq.issued_per_cycle::0     70195827     67.69%     67.69% # Number of insts issued each cycle
system.switch_cpus.iq.issued_per_cycle::1      8434613      8.13%     75.83% # Number of insts issued each cycle
system.switch_cpus.iq.issued_per_cycle::2      5708218      5.50%     81.33% # Number of insts issued each cycle
system.switch_cpus.iq.issued_per_cycle::3      3822834      3.69%     85.02% # Number of insts issued each cycle
system.switch_cpus.iq.issued_per_cycle::4      5858946      5.65%     90.67% # Number of insts issued each cycle
system.switch_cpus.iq.issued_per_cycle::5      3612901      3.48%     94.15% # Number of insts issued each cycle
system.switch_cpus.iq.issued_per_cycle::6      2613659      2.52%     96.67% # Number of insts issued each cycle
system.switch_cpus.iq.issued_per_cycle::7      1911721      1.84%     98.51% # Number of insts issued each cycle
system.switch_cpus.iq.issued_per_cycle::8      1540930      1.49%    100.00% # Number of insts issued each cycle
system.switch_cpus.iq.issued_per_cycle::overflows            0      0.00%    100.00% # Number of insts issued each cycle
system.switch_cpus.iq.issued_per_cycle::min_value            0                       # Number of insts issued each cycle
system.switch_cpus.iq.issued_per_cycle::max_value            8                       # Number of insts issued each cycle
system.switch_cpus.iq.issued_per_cycle::total    103699649                       # Number of insts issued each cycle
system.switch_cpus.iq.rate                   1.101140                       # Inst issue rate
system.switch_cpus.iq.vec_alu_accesses              0                       # Number of vector alu accesses
system.switch_cpus.iq.vec_inst_queue_reads            0                       # Number of vector instruction queue reads
system.switch_cpus.iq.vec_inst_queue_wakeup_accesses            0                       # Number of vector instruction queue wakeup accesses
system.switch_cpus.iq.vec_inst_queue_writes            0                       # Number of vector instruction queue writes
system.switch_cpus.itb.data_accesses                0                       # DTB accesses
system.switch_cpus.itb.data_acv                     0                       # DTB access violations
system.switch_cpus.itb.data_hits                    0                       # DTB hits
system.switch_cpus.itb.data_misses                  0                       # DTB misses
system.switch_cpus.itb.fetch_accesses        10604477                       # ITB accesses
system.switch_cpus.itb.fetch_acv                    0                       # ITB acv
system.switch_cpus.itb.fetch_hits            10604273                       # ITB hits
system.switch_cpus.itb.fetch_misses               204                       # ITB misses
system.switch_cpus.itb.pwrStateResidencyTicks::UNDEFINED 2415879646500                       # Cumulative time (in ticks) in various power states
system.switch_cpus.itb.read_accesses                0                       # DTB read accesses
system.switch_cpus.itb.read_acv                     0                       # DTB read access violations
system.switch_cpus.itb.read_hits                    0                       # DTB read hits
system.switch_cpus.itb.read_misses                  0                       # DTB read misses
system.switch_cpus.itb.write_accesses               0                       # DTB write accesses
system.switch_cpus.itb.write_acv                    0                       # DTB write access violations
system.switch_cpus.itb.write_hits                   0                       # DTB write hits
system.switch_cpus.itb.write_misses                 0                       # DTB write misses
system.switch_cpus.memDep0.conflictingLoads       771457                       # Number of conflicting loads.
system.switch_cpus.memDep0.conflictingStores       589814                       # Number of conflicting stores.
system.switch_cpus.memDep0.insertedLoads     29403592                       # Number of loads inserted to the mem dependence unit.
system.switch_cpus.memDep0.insertedStores      5894210                       # Number of stores inserted to the mem dependence unit.
system.switch_cpus.misc_regfile_reads             162                       # number of misc regfile reads
system.switch_cpus.misc_regfile_writes            144                       # number of misc regfile writes
system.switch_cpus.numCycles                103720910                       # number of cpu cycles simulated
system.switch_cpus.numWorkItemsCompleted            0                       # number of work items this cpu completed
system.switch_cpus.numWorkItemsStarted              0                       # number of work items this cpu started
system.switch_cpus.pwrStateResidencyTicks::OFF  51860465250                       # Cumulative time (in ticks) in various power states
system.switch_cpus.rename.BlockCycles        42137309                       # Number of cycles rename is blocking
system.switch_cpus.rename.CommittedMaps      90681269                       # Number of HB maps that are committed
system.switch_cpus.rename.IQFullEvents        4996063                       # Number of times rename has blocked due to IQ full
system.switch_cpus.rename.IdleCycles          6029315                       # Number of cycles rename is idle
system.switch_cpus.rename.LQFullEvents       37797161                       # Number of times rename has blocked due to LQ full
system.switch_cpus.rename.ROBFullEvents        321043                       # Number of times rename has blocked due to ROB full
system.switch_cpus.rename.RenameLookups     165696492                       # Number of register rename lookups that rename has made
system.switch_cpus.rename.RenamedInsts      103563291                       # Number of instructions processed by rename
system.switch_cpus.rename.RenamedOperands     93811195                       # Number of destination operands rename has renamed
system.switch_cpus.rename.RunCycles          12197576                       # Number of cycles rename is running
system.switch_cpus.rename.SQFullEvents         896311                       # Number of times rename has blocked due to SQ full
system.switch_cpus.rename.SquashCycles          57083                       # Number of cycles rename is squashing
system.switch_cpus.rename.UnblockCycles      43274786                       # Number of cycles rename is unblocking
system.switch_cpus.rename.UndoneMaps          3129849                       # Number of HB maps that are undone due to squashing
system.switch_cpus.rename.fp_rename_lookups     43854856                       # Number of floating rename lookups
system.switch_cpus.rename.int_rename_lookups    121841618                       # Number of integer rename lookups
system.switch_cpus.rename.serializeStallCycles         3579                       # count of cycles rename stalled for serializing inst
system.switch_cpus.rename.serializingInsts          101                       # count of serializing insts renamed
system.switch_cpus.rename.skidInsts          26412621                       # count of insts added to the skid buffer
system.switch_cpus.rename.tempSerializingInsts           82                       # count of temporary serializing insts renamed
system.switch_cpus.rob.rob_reads            196190585                       # The number of ROB reads
system.switch_cpus.rob.rob_writes           206421756                       # The number of ROB writes
system.switch_cpus.timesIdled                     224                       # Number of times that the entire CPU went into an idle state and unscheduled itself
system.tol2bus.pkt_count_system.cpu.icache.mem_side::system.l2.cpu_side          576                       # Packet count per connected master and slave (bytes)
system.tol2bus.pkt_count_system.cpu.dcache.mem_side::system.l2.cpu_side      5730073                       # Packet count per connected master and slave (bytes)
system.tol2bus.pkt_count::total               5730649                       # Packet count per connected master and slave (bytes)
system.tol2bus.pkt_size_system.cpu.icache.mem_side::system.l2.cpu_side        18432                       # Cumulative packet size per connected master and slave (bytes)
system.tol2bus.pkt_size_system.cpu.dcache.mem_side::system.l2.cpu_side    160526080                       # Cumulative packet size per connected master and slave (bytes)
system.tol2bus.pkt_size::total              160544512                       # Cumulative packet size per connected master and slave (bytes)
system.tol2bus.pwrStateResidencyTicks::UNDEFINED 2415879646500                       # Cumulative time (in ticks) in various power states
system.tol2bus.reqLayer0.occupancy         2508104500                       # Layer occupancy (ticks)
system.tol2bus.reqLayer0.utilization              4.8                       # Layer utilization (%)
system.tol2bus.respLayer0.occupancy            429998                       # Layer occupancy (ticks)
system.tol2bus.respLayer0.utilization             0.0                       # Layer utilization (%)
system.tol2bus.respLayer1.occupancy        2865281000                       # Layer occupancy (ticks)
system.tol2bus.respLayer1.utilization             5.5                       # Layer utilization (%)
system.tol2bus.snoopTraffic                  21757056                       # Total snoop traffic (bytes)
system.tol2bus.snoop_fanout::samples          2960996                       # Request fanout histogram
system.tol2bus.snoop_fanout::mean            0.000100                       # Request fanout histogram
system.tol2bus.snoop_fanout::stdev           0.010015                       # Request fanout histogram
system.tol2bus.snoop_fanout::underflows             0      0.00%      0.00% # Request fanout histogram
system.tol2bus.snoop_fanout::0                2960699     99.99%     99.99% # Request fanout histogram
system.tol2bus.snoop_fanout::1                    297      0.01%    100.00% # Request fanout histogram
system.tol2bus.snoop_fanout::2                      0      0.00%    100.00% # Request fanout histogram
system.tol2bus.snoop_fanout::overflows              0      0.00%    100.00% # Request fanout histogram
system.tol2bus.snoop_fanout::min_value              0                       # Request fanout histogram
system.tol2bus.snoop_fanout::max_value              1                       # Request fanout histogram
system.tol2bus.snoop_fanout::total            2960996                       # Request fanout histogram
system.tol2bus.snoop_filter.hit_multi_requests            0                       # Number of requests hitting in the snoop filter with multiple (>1) holders of the requested data.
system.tol2bus.snoop_filter.hit_multi_snoops            0                       # Number of snoops hitting in the snoop filter with multiple (>1) holders of the requested data.
system.tol2bus.snoop_filter.hit_single_requests      1909683                       # Number of requests hitting in the snoop filter with a single holder of the requested data.
system.tol2bus.snoop_filter.hit_single_snoops          297                       # Number of snoops hitting in the snoop filter with a single holder of the requested data.
system.tol2bus.snoop_filter.tot_requests      3820166                       # Total number of requests made to the snoop filter.
system.tol2bus.snoop_filter.tot_snoops            297                       # Total number of snoops made to the snoop filter.
system.tol2bus.snoops                         1050513                       # Total snoops (count)
system.tol2bus.trans_dist::ReadResp           1472548                       # Transaction distribution
system.tol2bus.trans_dist::WritebackDirty       937980                       # Transaction distribution
system.tol2bus.trans_dist::CleanEvict         2022216                       # Transaction distribution
system.tol2bus.trans_dist::ReadExReq           437934                       # Transaction distribution
system.tol2bus.trans_dist::ReadExResp          437934                       # Transaction distribution
system.tol2bus.trans_dist::ReadCleanReq           288                       # Transaction distribution
system.tol2bus.trans_dist::ReadSharedReq      1472260                       # Transaction distribution
system.tol2bus.trans_dist::InvalidateReq            1                       # Transaction distribution
system.tol2bus.trans_dist::InvalidateResp            1                       # Transaction distribution
system.voltage_domain.voltage                       1                       # Voltage in Volts

---------- End Simulation Statistics   ----------
