
******************************directory****************************
spec_dir: /home/cuihongwei/experiment/mcpat-gem5-master/spec2006/benchspec/CPU2006
run_dir:  /home/cuihongwei/experiment/mcpat-gem5-master/spec2006/benchspec/CPU2006/471.omnetpp/run/run_base_ref_amd64.0001
gem5_dir: /home/cuihongwei/experiment/experiment-gem5/raw-gem5
gem5_output_dir: /home/cuihongwei/experiment/experiment-gem5/raw-gem5/output/471.omnetpp/alpha-OLD-471.omnetpp-input1-190330-221518
benchmark_output:/home/cuihongwei/experiment/experiment-gem5/raw-gem5/output/471.omnetpp/alpha-OLD-471.omnetpp-input1-190330-221518
checkpoint_dir:/home/cuihongwei/experiment/experiment-gem5/pubs-gem5/output/alpha-471.omnetpp-checkpoint-input1

******************************benchmark****************************
target:     471.omnetpp
executable: omnetpp
args:       omnetpp.ini
input:      
output:     /home/cuihongwei/experiment/experiment-gem5/raw-gem5/output/471.omnetpp/alpha-OLD-471.omnetpp-input1-190330-221518/omnetpp.log
errout:     /home/cuihongwei/experiment/experiment-gem5/raw-gem5/output/471.omnetpp/alpha-OLD-471.omnetpp-input1-190330-221518/omnetpp.err

******************************gem5****************************
arch:       /home/cuihongwei/experiment/experiment-gem5/raw-gem5/build/ALPHA/gem5.opt
config:     /home/cuihongwei/experiment/experiment-gem5/raw-gem5/configs/example/se.py
args:       --num-cpus=1 --mem-size=8GB --caches --l1d_size=32kB --l1d_assoc=8 --l1i_size=32kB --l1i_assoc=8 --l2cache --l2_size=2MB --l2_assoc=16 --at-instruction --checkpoint-restore=5000000000 --maxinsts=100000000 --cpu-type=DerivO3CPU
debugFlag:  --debug-flags=ShowRunning

******************************simulation****************************
start time:(year-mon-day hour-minute-second)19-03-30 22-15-18
gem5 Simulator System.  http://gem5.org
gem5 is copyrighted software; use the --copyright option for details.

gem5 compiled Mar 30 2019 20:24:53
gem5 started Mar 30 2019 22:15:18
gem5 executing on mprc-R730, pid 5222
command line: /home/cuihongwei/experiment/experiment-gem5/raw-gem5/build/ALPHA/gem5.opt --outdir=/home/cuihongwei/experiment/experiment-gem5/raw-gem5/output/471.omnetpp/alpha-OLD-471.omnetpp-input1-190330-221518 --debug-flags=ShowRunning /home/cuihongwei/experiment/experiment-gem5/raw-gem5/configs/example/se.py --num-cpus=1 --mem-size=8GB --caches --l1d_size=32kB --l1d_assoc=8 --l1i_size=32kB --l1i_assoc=8 --l2cache --l2_size=2MB --l2_assoc=16 --at-instruction --checkpoint-restore=5000000000 --maxinsts=100000000 --cpu-type=DerivO3CPU --checkpoint-dir=/home/cuihongwei/experiment/experiment-gem5/pubs-gem5/output/alpha-471.omnetpp-checkpoint-input1 --cmd=/home/cuihongwei/experiment/mcpat-gem5-master/spec2006/benchspec/CPU2006/471.omnetpp/run/build_peak_alpha.0001/omnetpp --options=omnetpp.ini --output=/home/cuihongwei/experiment/experiment-gem5/raw-gem5/output/471.omnetpp/alpha-OLD-471.omnetpp-input1-190330-221518/omnetpp.log --input= --errout=/home/cuihongwei/experiment/experiment-gem5/raw-gem5/output/471.omnetpp/alpha-OLD-471.omnetpp-input1-190330-221518/omnetpp.err

Global frequency set at 1000000000000 ticks per second
Switch at curTick count:10000
Switched CPUS @ tick 3658790406500
switching cpus
**** REAL SIMULATION ****
3658790407000: system.switch_cpus: Raw Gem5 Running in Cycle:               0, Inst:               0
3658862914500: system.switch_cpus: Raw Gem5 Running in Cycle:          100000, Inst:          138723
3658916936500: system.switch_cpus: Raw Gem5 Running in Cycle:          200000, Inst:          154447
3658966936500: system.switch_cpus: Raw Gem5 Running in Cycle:          300000, Inst:          164985
3659016936500: system.switch_cpus: Raw Gem5 Running in Cycle:          400000, Inst:          174632
3659066936500: system.switch_cpus: Raw Gem5 Running in Cycle:          500000, Inst:          184323
3659116936500: system.switch_cpus: Raw Gem5 Running in Cycle:          600000, Inst:          193849
3659166936500: system.switch_cpus: Raw Gem5 Running in Cycle:          700000, Inst:          203496
3659216936500: system.switch_cpus: Raw Gem5 Running in Cycle:          800000, Inst:          213242
3659266936500: system.switch_cpus: Raw Gem5 Running in Cycle:          900000, Inst:          222911
3659316936500: system.switch_cpus: Raw Gem5 Running in Cycle:         1000000, Inst:          232591
3659366936500: system.switch_cpus: Raw Gem5 Running in Cycle:         1100000, Inst:          242282
3659416936500: system.switch_cpus: Raw Gem5 Running in Cycle:         1200000, Inst:          251907
3659466936500: system.switch_cpus: Raw Gem5 Running in Cycle:         1300000, Inst:          261532
3659516936500: system.switch_cpus: Raw Gem5 Running in Cycle:         1400000, Inst:          271278
3659566936500: system.switch_cpus: Raw Gem5 Running in Cycle:         1500000, Inst:          280879
3659616936500: system.switch_cpus: Raw Gem5 Running in Cycle:         1600000, Inst:          290638
3659666936500: system.switch_cpus: Raw Gem5 Running in Cycle:         1700000, Inst:          300450
3659716936500: system.switch_cpus: Raw Gem5 Running in Cycle:         1800000, Inst:          310174
3659766936500: system.switch_cpus: Raw Gem5 Running in Cycle:         1900000, Inst:          319777
3659816936500: system.switch_cpus: Raw Gem5 Running in Cycle:         2000000, Inst:          329589
3659866936500: system.switch_cpus: Raw Gem5 Running in Cycle:         2100000, Inst:          339478
3659916936500: system.switch_cpus: Raw Gem5 Running in Cycle:         2200000, Inst:          349642
3659966936500: system.switch_cpus: Raw Gem5 Running in Cycle:         2300000, Inst:          359498
3660016936500: system.switch_cpus: Raw Gem5 Running in Cycle:         2400000, Inst:          369354
3660066936500: system.switch_cpus: Raw Gem5 Running in Cycle:         2500000, Inst:          379155
3660116936500: system.switch_cpus: Raw Gem5 Running in Cycle:         2600000, Inst:          389143
3660166936500: system.switch_cpus: Raw Gem5 Running in Cycle:         2700000, Inst:          399043
3660216936500: system.switch_cpus: Raw Gem5 Running in Cycle:         2800000, Inst:          408998
3660266936500: system.switch_cpus: Raw Gem5 Running in Cycle:         2900000, Inst:          418689
3660316936500: system.switch_cpus: Raw Gem5 Running in Cycle:         3000000, Inst:          428468
3660366936500: system.switch_cpus: Raw Gem5 Running in Cycle:         3100000, Inst:          438126
3660416936500: system.switch_cpus: Raw Gem5 Running in Cycle:         3200000, Inst:          447971
3660466936500: system.switch_cpus: Raw Gem5 Running in Cycle:         3300000, Inst:          457673
3660517378000: system.switch_cpus: Raw Gem5 Running in Cycle:         3400000, Inst:          467501
3660578790500: system.switch_cpus: Raw Gem5 Running in Cycle:         3500000, Inst:          587125
3660636984000: system.switch_cpus: Raw Gem5 Running in Cycle:         3600000, Inst:          720171
3660689727500: system.switch_cpus: Raw Gem5 Running in Cycle:         3700000, Inst:          889292
3660742428500: system.switch_cpus: Raw Gem5 Running in Cycle:         3800000, Inst:         1061161
3660792428500: system.switch_cpus: Raw Gem5 Running in Cycle:         3900000, Inst:         1072073
3660842428500: system.switch_cpus: Raw Gem5 Running in Cycle:         4000000, Inst:         1083183
3660892428500: system.switch_cpus: Raw Gem5 Running in Cycle:         4100000, Inst:         1094425
3660942428500: system.switch_cpus: Raw Gem5 Running in Cycle:         4200000, Inst:         1105656
3660992428500: system.switch_cpus: Raw Gem5 Running in Cycle:         4300000, Inst:         1116843
3661042428500: system.switch_cpus: Raw Gem5 Running in Cycle:         4400000, Inst:         1128162
3661092428500: system.switch_cpus: Raw Gem5 Running in Cycle:         4500000, Inst:         1139074
3661142428500: system.switch_cpus: Raw Gem5 Running in Cycle:         4600000, Inst:         1150162
3661192428500: system.switch_cpus: Raw Gem5 Running in Cycle:         4700000, Inst:         1161162
3661242428500: system.switch_cpus: Raw Gem5 Running in Cycle:         4800000, Inst:         1172305
3661292428500: system.switch_cpus: Raw Gem5 Running in Cycle:         4900000, Inst:         1183338
3661342428500: system.switch_cpus: Raw Gem5 Running in Cycle:         5000000, Inst:         1194294
3661392428500: system.switch_cpus: Raw Gem5 Running in Cycle:         5100000, Inst:         1205459
3661442428500: system.switch_cpus: Raw Gem5 Running in Cycle:         5200000, Inst:         1216360
3661492428500: system.switch_cpus: Raw Gem5 Running in Cycle:         5300000, Inst:         1227877
3661542428500: system.switch_cpus: Raw Gem5 Running in Cycle:         5400000, Inst:         1239306
3661592428500: system.switch_cpus: Raw Gem5 Running in Cycle:         5500000, Inst:         1250526
3661642428500: system.switch_cpus: Raw Gem5 Running in Cycle:         5600000, Inst:         1261834
3661692428500: system.switch_cpus: Raw Gem5 Running in Cycle:         5700000, Inst:         1273450
3661742428500: system.switch_cpus: Raw Gem5 Running in Cycle:         5800000, Inst:         1284879
3661792428500: system.switch_cpus: Raw Gem5 Running in Cycle:         5900000, Inst:         1296176
3661842428500: system.switch_cpus: Raw Gem5 Running in Cycle:         6000000, Inst:         1307583
3661892428500: system.switch_cpus: Raw Gem5 Running in Cycle:         6100000, Inst:         1318935
3661942428500: system.switch_cpus: Raw Gem5 Running in Cycle:         6200000, Inst:         1330166
3661992428500: system.switch_cpus: Raw Gem5 Running in Cycle:         6300000, Inst:         1341375
3662042428500: system.switch_cpus: Raw Gem5 Running in Cycle:         6400000, Inst:         1352650
3662092428500: system.switch_cpus: Raw Gem5 Running in Cycle:         6500000, Inst:         1363881
3662142428500: system.switch_cpus: Raw Gem5 Running in Cycle:         6600000, Inst:         1374804
3662197464000: system.switch_cpus: Raw Gem5 Running in Cycle:         6700000, Inst:         1433604
3662255849000: system.switch_cpus: Raw Gem5 Running in Cycle:         6800000, Inst:         1588228
3662308644000: system.switch_cpus: Raw Gem5 Running in Cycle:         6900000, Inst:         1742031
3662361327500: system.switch_cpus: Raw Gem5 Running in Cycle:         7000000, Inst:         1962237
3662411343500: system.switch_cpus: Raw Gem5 Running in Cycle:         7100000, Inst:         1983213
3662461343500: system.switch_cpus: Raw Gem5 Running in Cycle:         7200000, Inst:         1994840
3662511343500: system.switch_cpus: Raw Gem5 Running in Cycle:         7300000, Inst:         2006258
3662561343500: system.switch_cpus: Raw Gem5 Running in Cycle:         7400000, Inst:         2017555
3662611343500: system.switch_cpus: Raw Gem5 Running in Cycle:         7500000, Inst:         2028500
3662661343500: system.switch_cpus: Raw Gem5 Running in Cycle:         7600000, Inst:         2039808
3662711343500: system.switch_cpus: Raw Gem5 Running in Cycle:         7700000, Inst:         2051105
3662761343500: system.switch_cpus: Raw Gem5 Running in Cycle:         7800000, Inst:         2062303
3662811343500: system.switch_cpus: Raw Gem5 Running in Cycle:         7900000, Inst:         2073600
3662861343500: system.switch_cpus: Raw Gem5 Running in Cycle:         8000000, Inst:         2084666
3662911343500: system.switch_cpus: Raw Gem5 Running in Cycle:         8100000, Inst:         2095974
3662961343500: system.switch_cpus: Raw Gem5 Running in Cycle:         8200000, Inst:         2106930
3663011343500: system.switch_cpus: Raw Gem5 Running in Cycle:         8300000, Inst:         2118315
3663061343500: system.switch_cpus: Raw Gem5 Running in Cycle:         8400000, Inst:         2129469
3663111343500: system.switch_cpus: Raw Gem5 Running in Cycle:         8500000, Inst:         2141217
3663161343500: system.switch_cpus: Raw Gem5 Running in Cycle:         8600000, Inst:         2152646
3663211343500: system.switch_cpus: Raw Gem5 Running in Cycle:         8700000, Inst:         2164185
3663261343500: system.switch_cpus: Raw Gem5 Running in Cycle:         8800000, Inst:         2175779
3663311343500: system.switch_cpus: Raw Gem5 Running in Cycle:         8900000, Inst:         2187417
3663361343500: system.switch_cpus: Raw Gem5 Running in Cycle:         9000000, Inst:         2199132
3663411343500: system.switch_cpus: Raw Gem5 Running in Cycle:         9100000, Inst:         2210682
3663461343500: system.switch_cpus: Raw Gem5 Running in Cycle:         9200000, Inst:         2221792
3663511343500: system.switch_cpus: Raw Gem5 Running in Cycle:         9300000, Inst:         2233386
3663561343500: system.switch_cpus: Raw Gem5 Running in Cycle:         9400000, Inst:         2244969
3663611343500: system.switch_cpus: Raw Gem5 Running in Cycle:         9500000, Inst:         2256090
3663661343500: system.switch_cpus: Raw Gem5 Running in Cycle:         9600000, Inst:         2267552
3663711343500: system.switch_cpus: Raw Gem5 Running in Cycle:         9700000, Inst:         2278950
3663761343500: system.switch_cpus: Raw Gem5 Running in Cycle:         9800000, Inst:         2290091
3663816253500: system.switch_cpus: Raw Gem5 Running in Cycle:         9900000, Inst:         2368768
3663873711000: system.switch_cpus: Raw Gem5 Running in Cycle:        10000000, Inst:         2524573
3663926056000: system.switch_cpus: Raw Gem5 Running in Cycle:        10100000, Inst:         2684203
3663978572000: system.switch_cpus: Raw Gem5 Running in Cycle:        10200000, Inst:         2888966
3664028574000: system.switch_cpus: Raw Gem5 Running in Cycle:        10300000, Inst:         2899945
3664078574000: system.switch_cpus: Raw Gem5 Running in Cycle:        10400000, Inst:         2911627
3664128574000: system.switch_cpus: Raw Gem5 Running in Cycle:        10500000, Inst:         2922924
3664178574000: system.switch_cpus: Raw Gem5 Running in Cycle:        10600000, Inst:         2934276
3664228574000: system.switch_cpus: Raw Gem5 Running in Cycle:        10700000, Inst:         2945375
3664278574000: system.switch_cpus: Raw Gem5 Running in Cycle:        10800000, Inst:         2956628
3664328574000: system.switch_cpus: Raw Gem5 Running in Cycle:        10900000, Inst:         2967837
3664378574000: system.switch_cpus: Raw Gem5 Running in Cycle:        11000000, Inst:         2979024
3664428574000: system.switch_cpus: Raw Gem5 Running in Cycle:        11100000, Inst:         2990277
3664478574000: system.switch_cpus: Raw Gem5 Running in Cycle:        11200000, Inst:         3001552
3664528574000: system.switch_cpus: Raw Gem5 Running in Cycle:        11300000, Inst:         3012882
3664578574000: system.switch_cpus: Raw Gem5 Running in Cycle:        11400000, Inst:         3024102
3664628574000: system.switch_cpus: Raw Gem5 Running in Cycle:        11500000, Inst:         3035465
3664678574000: system.switch_cpus: Raw Gem5 Running in Cycle:        11600000, Inst:         3046740
3664728574000: system.switch_cpus: Raw Gem5 Running in Cycle:        11700000, Inst:         3058466
3664778574000: system.switch_cpus: Raw Gem5 Running in Cycle:        11800000, Inst:         3069895
3664828574000: system.switch_cpus: Raw Gem5 Running in Cycle:        11900000, Inst:         3081104
3664878574000: system.switch_cpus: Raw Gem5 Running in Cycle:        12000000, Inst:         3092786
3664928574000: system.switch_cpus: Raw Gem5 Running in Cycle:        12100000, Inst:         3104534
3664978574000: system.switch_cpus: Raw Gem5 Running in Cycle:        12200000, Inst:         3116051
3665028574000: system.switch_cpus: Raw Gem5 Running in Cycle:        12300000, Inst:         3127601
3665078574000: system.switch_cpus: Raw Gem5 Running in Cycle:        12400000, Inst:         3138931
3665128574000: system.switch_cpus: Raw Gem5 Running in Cycle:        12500000, Inst:         3150635
3665178574000: system.switch_cpus: Raw Gem5 Running in Cycle:        12600000, Inst:         3161899
3665228574000: system.switch_cpus: Raw Gem5 Running in Cycle:        12700000, Inst:         3173339
3665278574000: system.switch_cpus: Raw Gem5 Running in Cycle:        12800000, Inst:         3184801
3665328574000: system.switch_cpus: Raw Gem5 Running in Cycle:        12900000, Inst:         3195867
3665378574000: system.switch_cpus: Raw Gem5 Running in Cycle:        13000000, Inst:         3207263
3665433648000: system.switch_cpus: Raw Gem5 Running in Cycle:        13100000, Inst:         3323878
3665491014000: system.switch_cpus: Raw Gem5 Running in Cycle:        13200000, Inst:         3464767
3665543014000: system.switch_cpus: Raw Gem5 Running in Cycle:        13300000, Inst:         3642536
3665595582000: system.switch_cpus: Raw Gem5 Running in Cycle:        13400000, Inst:         3807342
3665645582000: system.switch_cpus: Raw Gem5 Running in Cycle:        13500000, Inst:         3818848
3665695582000: system.switch_cpus: Raw Gem5 Running in Cycle:        13600000, Inst:         3830387
3665745582000: system.switch_cpus: Raw Gem5 Running in Cycle:        13700000, Inst:         3841607
3665795582000: system.switch_cpus: Raw Gem5 Running in Cycle:        13800000, Inst:         3852904
3665845582000: system.switch_cpus: Raw Gem5 Running in Cycle:        13900000, Inst:         3864058
3665895582000: system.switch_cpus: Raw Gem5 Running in Cycle:        14000000, Inst:         3875454
3665945582000: system.switch_cpus: Raw Gem5 Running in Cycle:        14100000, Inst:         3886476
3665995582000: system.switch_cpus: Raw Gem5 Running in Cycle:        14200000, Inst:         3897938
3666045582000: system.switch_cpus: Raw Gem5 Running in Cycle:        14300000, Inst:         3909191
3666095582000: system.switch_cpus: Raw Gem5 Running in Cycle:        14400000, Inst:         3920444
3666145582000: system.switch_cpus: Raw Gem5 Running in Cycle:        14500000, Inst:         3931840
3666195582000: system.switch_cpus: Raw Gem5 Running in Cycle:        14600000, Inst:         3943159
3666245582000: system.switch_cpus: Raw Gem5 Running in Cycle:        14700000, Inst:         3954456
3666295582000: system.switch_cpus: Raw Gem5 Running in Cycle:        14800000, Inst:         3965709
3666345582000: system.switch_cpus: Raw Gem5 Running in Cycle:        14900000, Inst:         3977402
3666395582000: system.switch_cpus: Raw Gem5 Running in Cycle:        15000000, Inst:         3988820
3666445582000: system.switch_cpus: Raw Gem5 Running in Cycle:        15100000, Inst:         4000304
3666495582000: system.switch_cpus: Raw Gem5 Running in Cycle:        15200000, Inst:         4011865
3666545582000: system.switch_cpus: Raw Gem5 Running in Cycle:        15300000, Inst:         4023415
3666595582000: system.switch_cpus: Raw Gem5 Running in Cycle:        15400000, Inst:         4034855
3666645582000: system.switch_cpus: Raw Gem5 Running in Cycle:        15500000, Inst:         4046449
3666695582000: system.switch_cpus: Raw Gem5 Running in Cycle:        15600000, Inst:         4058021
3666745582000: system.switch_cpus: Raw Gem5 Running in Cycle:        15700000, Inst:         4069791
3666795582000: system.switch_cpus: Raw Gem5 Running in Cycle:        15800000, Inst:         4081187
3666845582000: system.switch_cpus: Raw Gem5 Running in Cycle:        15900000, Inst:         4092473
3666895582000: system.switch_cpus: Raw Gem5 Running in Cycle:        16000000, Inst:         4103957
3666945582000: system.switch_cpus: Raw Gem5 Running in Cycle:        16100000, Inst:         4115100
3666996936000: system.switch_cpus: Raw Gem5 Running in Cycle:        16200000, Inst:         4127764
3667047636000: system.switch_cpus: Raw Gem5 Running in Cycle:        16300000, Inst:         4173426
3667097636000: system.switch_cpus: Raw Gem5 Running in Cycle:        16400000, Inst:         4229622
3667154912000: system.switch_cpus: Raw Gem5 Running in Cycle:        16500000, Inst:         4355470
3667212334500: system.switch_cpus: Raw Gem5 Running in Cycle:        16600000, Inst:         4491720
3667264432500: system.switch_cpus: Raw Gem5 Running in Cycle:        16700000, Inst:         4676421
3667317139000: system.switch_cpus: Raw Gem5 Running in Cycle:        16800000, Inst:         4830306
3667367139000: system.switch_cpus: Raw Gem5 Running in Cycle:        16900000, Inst:         4840987
3667417139000: system.switch_cpus: Raw Gem5 Running in Cycle:        17000000, Inst:         4851536
3667467139000: system.switch_cpus: Raw Gem5 Running in Cycle:        17100000, Inst:         4861810
3667517139000: system.switch_cpus: Raw Gem5 Running in Cycle:        17200000, Inst:         4872293
3667567139000: system.switch_cpus: Raw Gem5 Running in Cycle:        17300000, Inst:         4882643
3667617139000: system.switch_cpus: Raw Gem5 Running in Cycle:        17400000, Inst:         4893061
3667667139000: system.switch_cpus: Raw Gem5 Running in Cycle:        17500000, Inst:         4903390
3667717139000: system.switch_cpus: Raw Gem5 Running in Cycle:        17600000, Inst:         4913631
3667767139000: system.switch_cpus: Raw Gem5 Running in Cycle:        17700000, Inst:         4924048
3667817139000: system.switch_cpus: Raw Gem5 Running in Cycle:        17800000, Inst:         4934355
3667867139000: system.switch_cpus: Raw Gem5 Running in Cycle:        17900000, Inst:         4944563
3667917139000: system.switch_cpus: Raw Gem5 Running in Cycle:        18000000, Inst:         4954804
3667967139000: system.switch_cpus: Raw Gem5 Running in Cycle:        18100000, Inst:         4965265
3668017139000: system.switch_cpus: Raw Gem5 Running in Cycle:        18200000, Inst:         4975704
3668067139000: system.switch_cpus: Raw Gem5 Running in Cycle:        18300000, Inst:         4986198
3668117139000: system.switch_cpus: Raw Gem5 Running in Cycle:        18400000, Inst:         4996791
3668167139000: system.switch_cpus: Raw Gem5 Running in Cycle:        18500000, Inst:         5007208
3668217139000: system.switch_cpus: Raw Gem5 Running in Cycle:        18600000, Inst:         5017856
3668267139000: system.switch_cpus: Raw Gem5 Running in Cycle:        18700000, Inst:         5028493
3668317139000: system.switch_cpus: Raw Gem5 Running in Cycle:        18800000, Inst:         5038943
3668367139000: system.switch_cpus: Raw Gem5 Running in Cycle:        18900000, Inst:         5049404
3668417139000: system.switch_cpus: Raw Gem5 Running in Cycle:        19000000, Inst:         5059898
3668467139000: system.switch_cpus: Raw Gem5 Running in Cycle:        19100000, Inst:         5070436
3668517139000: system.switch_cpus: Raw Gem5 Running in Cycle:        19200000, Inst:         5080941
3668567139000: system.switch_cpus: Raw Gem5 Running in Cycle:        19300000, Inst:         5091391
3668617139000: system.switch_cpus: Raw Gem5 Running in Cycle:        19400000, Inst:         5101610
3668667139000: system.switch_cpus: Raw Gem5 Running in Cycle:        19500000, Inst:         5111983
3668717139000: system.switch_cpus: Raw Gem5 Running in Cycle:        19600000, Inst:         5122598
3668767139000: system.switch_cpus: Raw Gem5 Running in Cycle:        19700000, Inst:         5132762
3668817139000: system.switch_cpus: Raw Gem5 Running in Cycle:        19800000, Inst:         5142981
3668871942000: system.switch_cpus: Raw Gem5 Running in Cycle:        19900000, Inst:         5179141
3668929195000: system.switch_cpus: Raw Gem5 Running in Cycle:        20000000, Inst:         5352657
3668981974000: system.switch_cpus: Raw Gem5 Running in Cycle:        20100000, Inst:         5488493
3669034477500: system.switch_cpus: Raw Gem5 Running in Cycle:        20200000, Inst:         5708529
3669084492000: system.switch_cpus: Raw Gem5 Running in Cycle:        20300000, Inst:         5755775
3669134492000: system.switch_cpus: Raw Gem5 Running in Cycle:        20400000, Inst:         5767557
3669184492000: system.switch_cpus: Raw Gem5 Running in Cycle:        20500000, Inst:         5778612
3669234492000: system.switch_cpus: Raw Gem5 Running in Cycle:        20600000, Inst:         5789766
3669284492000: system.switch_cpus: Raw Gem5 Running in Cycle:        20700000, Inst:         5800810
3669334492000: system.switch_cpus: Raw Gem5 Running in Cycle:        20800000, Inst:         5812052
3669384492000: system.switch_cpus: Raw Gem5 Running in Cycle:        20900000, Inst:         5822579
3669434492000: system.switch_cpus: Raw Gem5 Running in Cycle:        21000000, Inst:         5833524
3669484492000: system.switch_cpus: Raw Gem5 Running in Cycle:        21100000, Inst:         5844447
3669534492000: system.switch_cpus: Raw Gem5 Running in Cycle:        21200000, Inst:         5855414
3669584492000: system.switch_cpus: Raw Gem5 Running in Cycle:        21300000, Inst:         5866392
3669634492000: system.switch_cpus: Raw Gem5 Running in Cycle:        21400000, Inst:         5877425
3669684492000: system.switch_cpus: Raw Gem5 Running in Cycle:        21500000, Inst:         5888568
3669734492000: system.switch_cpus: Raw Gem5 Running in Cycle:        21600000, Inst:         5899403
3669784492000: system.switch_cpus: Raw Gem5 Running in Cycle:        21700000, Inst:         5910656
3669834492000: system.switch_cpus: Raw Gem5 Running in Cycle:        21800000, Inst:         5921844
3669884492000: system.switch_cpus: Raw Gem5 Running in Cycle:        21900000, Inst:         5933173
3669934492000: system.switch_cpus: Raw Gem5 Running in Cycle:        22000000, Inst:         5944613
3669984492000: system.switch_cpus: Raw Gem5 Running in Cycle:        22100000, Inst:         5956174
3670034492000: system.switch_cpus: Raw Gem5 Running in Cycle:        22200000, Inst:         5967625
3670084492000: system.switch_cpus: Raw Gem5 Running in Cycle:        22300000, Inst:         5979098
3670134492000: system.switch_cpus: Raw Gem5 Running in Cycle:        22400000, Inst:         5990450
3670184492000: system.switch_cpus: Raw Gem5 Running in Cycle:        22500000, Inst:         6001670
3670234492000: system.switch_cpus: Raw Gem5 Running in Cycle:        22600000, Inst:         6013010
3670284492000: system.switch_cpus: Raw Gem5 Running in Cycle:        22700000, Inst:         6023912
3670334492000: system.switch_cpus: Raw Gem5 Running in Cycle:        22800000, Inst:         6035187
3670384492000: system.switch_cpus: Raw Gem5 Running in Cycle:        22900000, Inst:         6046671
3670434492000: system.switch_cpus: Raw Gem5 Running in Cycle:        23000000, Inst:         6057484
3670484958500: system.switch_cpus: Raw Gem5 Running in Cycle:        23100000, Inst:         6069112
3670545163000: system.switch_cpus: Raw Gem5 Running in Cycle:        23200000, Inst:         6199821
3670596859000: system.switch_cpus: Raw Gem5 Running in Cycle:        23300000, Inst:         6354329
3670650706000: system.switch_cpus: Raw Gem5 Running in Cycle:        23400000, Inst:         6529844
3670701465500: system.switch_cpus: Raw Gem5 Running in Cycle:        23500000, Inst:         6670752
3670751465500: system.switch_cpus: Raw Gem5 Running in Cycle:        23600000, Inst:         6682313
3670801465500: system.switch_cpus: Raw Gem5 Running in Cycle:        23700000, Inst:         6693522
3670851465500: system.switch_cpus: Raw Gem5 Running in Cycle:        23800000, Inst:         6704588
3670901465500: system.switch_cpus: Raw Gem5 Running in Cycle:        23900000, Inst:         6715819
3670951465500: system.switch_cpus: Raw Gem5 Running in Cycle:        24000000, Inst:         6726665
3671001465500: system.switch_cpus: Raw Gem5 Running in Cycle:        24100000, Inst:         6737775
3671051465500: system.switch_cpus: Raw Gem5 Running in Cycle:        24200000, Inst:         6748577
3671101465500: system.switch_cpus: Raw Gem5 Running in Cycle:        24300000, Inst:         6759566
3671151465500: system.switch_cpus: Raw Gem5 Running in Cycle:        24400000, Inst:         6770456
3671201465500: system.switch_cpus: Raw Gem5 Running in Cycle:        24500000, Inst:         6781632
3671251465500: system.switch_cpus: Raw Gem5 Running in Cycle:        24600000, Inst:         6792511
3671301465500: system.switch_cpus: Raw Gem5 Running in Cycle:        24700000, Inst:         6803467
3671351465500: system.switch_cpus: Raw Gem5 Running in Cycle:        24800000, Inst:         6814929
3671401465500: system.switch_cpus: Raw Gem5 Running in Cycle:        24900000, Inst:         6826149
3671451465500: system.switch_cpus: Raw Gem5 Running in Cycle:        25000000, Inst:         6837809
3671501465500: system.switch_cpus: Raw Gem5 Running in Cycle:        25100000, Inst:         6848897
3671551465500: system.switch_cpus: Raw Gem5 Running in Cycle:        25200000, Inst:         6860018
3671601465500: system.switch_cpus: Raw Gem5 Running in Cycle:        25300000, Inst:         6871601
3671651465500: system.switch_cpus: Raw Gem5 Running in Cycle:        25400000, Inst:         6883019
3671701465500: system.switch_cpus: Raw Gem5 Running in Cycle:        25500000, Inst:         6894481
3671751465500: system.switch_cpus: Raw Gem5 Running in Cycle:        25600000, Inst:         6905734
3671801465500: system.switch_cpus: Raw Gem5 Running in Cycle:        25700000, Inst:         6917273
3671851465500: system.switch_cpus: Raw Gem5 Running in Cycle:        25800000, Inst:         6928779
3671901465500: system.switch_cpus: Raw Gem5 Running in Cycle:        25900000, Inst:         6939823
3671951465500: system.switch_cpus: Raw Gem5 Running in Cycle:        26000000, Inst:         6950988
3672001465500: system.switch_cpus: Raw Gem5 Running in Cycle:        26100000, Inst:         6962538
3672051465500: system.switch_cpus: Raw Gem5 Running in Cycle:        26200000, Inst:         6973648
3672101465500: system.switch_cpus: Raw Gem5 Running in Cycle:        26300000, Inst:         6984813
3672156316000: system.switch_cpus: Raw Gem5 Running in Cycle:        26400000, Inst:         7068568
3672213140500: system.switch_cpus: Raw Gem5 Running in Cycle:        26500000, Inst:         7225696
3672265686500: system.switch_cpus: Raw Gem5 Running in Cycle:        26600000, Inst:         7385042
3672318215500: system.switch_cpus: Raw Gem5 Running in Cycle:        26700000, Inst:         7587796
3672368215500: system.switch_cpus: Raw Gem5 Running in Cycle:        26800000, Inst:         7598367
3672418215500: system.switch_cpus: Raw Gem5 Running in Cycle:        26900000, Inst:         7609807
3672468215500: system.switch_cpus: Raw Gem5 Running in Cycle:        27000000, Inst:         7620994
3672518215500: system.switch_cpus: Raw Gem5 Running in Cycle:        27100000, Inst:         7632214
3672568215500: system.switch_cpus: Raw Gem5 Running in Cycle:        27200000, Inst:         7643115
3672618215500: system.switch_cpus: Raw Gem5 Running in Cycle:        27300000, Inst:         7654500
3672668215500: system.switch_cpus: Raw Gem5 Running in Cycle:        27400000, Inst:         7665480
3672718215500: system.switch_cpus: Raw Gem5 Running in Cycle:        27500000, Inst:         7676390
3672768215500: system.switch_cpus: Raw Gem5 Running in Cycle:        27600000, Inst:         7687335
3672818215500: system.switch_cpus: Raw Gem5 Running in Cycle:        27700000, Inst:         7698412
3672868215500: system.switch_cpus: Raw Gem5 Running in Cycle:        27800000, Inst:         7709357
3672918215500: system.switch_cpus: Raw Gem5 Running in Cycle:        27900000, Inst:         7720588
3672968215500: system.switch_cpus: Raw Gem5 Running in Cycle:        28000000, Inst:         7731830
3673018215500: system.switch_cpus: Raw Gem5 Running in Cycle:        28100000, Inst:         7742632
3673068215500: system.switch_cpus: Raw Gem5 Running in Cycle:        28200000, Inst:         7754094
3673118215500: system.switch_cpus: Raw Gem5 Running in Cycle:        28300000, Inst:         7765578
3673168215500: system.switch_cpus: Raw Gem5 Running in Cycle:        28400000, Inst:         7777007
3673218215500: system.switch_cpus: Raw Gem5 Running in Cycle:        28500000, Inst:         7788414
3673268215500: system.switch_cpus: Raw Gem5 Running in Cycle:        28600000, Inst:         7799744
3673318215500: system.switch_cpus: Raw Gem5 Running in Cycle:        28700000, Inst:         7811261
3673368215500: system.switch_cpus: Raw Gem5 Running in Cycle:        28800000, Inst:         7822833
3673418215500: system.switch_cpus: Raw Gem5 Running in Cycle:        28900000, Inst:         7834119
3673468215500: system.switch_cpus: Raw Gem5 Running in Cycle:        29000000, Inst:         7845427
3673518215500: system.switch_cpus: Raw Gem5 Running in Cycle:        29100000, Inst:         7856933
3673568215500: system.switch_cpus: Raw Gem5 Running in Cycle:        29200000, Inst:         7867977
3673618215500: system.switch_cpus: Raw Gem5 Running in Cycle:        29300000, Inst:         7879395
3673668215500: system.switch_cpus: Raw Gem5 Running in Cycle:        29400000, Inst:         7890494
3673718215500: system.switch_cpus: Raw Gem5 Running in Cycle:        29500000, Inst:         7901384
3673772770000: system.switch_cpus: Raw Gem5 Running in Cycle:        29600000, Inst:         7936458
3673829312500: system.switch_cpus: Raw Gem5 Running in Cycle:        29700000, Inst:         8108114
3673882383500: system.switch_cpus: Raw Gem5 Running in Cycle:        29800000, Inst:         8239378
3673934164000: system.switch_cpus: Raw Gem5 Running in Cycle:        29900000, Inst:         8459802
3673984843500: system.switch_cpus: Raw Gem5 Running in Cycle:        30000000, Inst:         8514773
3674034843500: system.switch_cpus: Raw Gem5 Running in Cycle:        30100000, Inst:         8526741
3674084843500: system.switch_cpus: Raw Gem5 Running in Cycle:        30200000, Inst:         8537576
3674134843500: system.switch_cpus: Raw Gem5 Running in Cycle:        30300000, Inst:         8549049
3674184843500: system.switch_cpus: Raw Gem5 Running in Cycle:        30400000, Inst:         8560137
3674234843500: system.switch_cpus: Raw Gem5 Running in Cycle:        30500000, Inst:         8571478
3674284843500: system.switch_cpus: Raw Gem5 Running in Cycle:        30600000, Inst:         8582368
3674334843500: system.switch_cpus: Raw Gem5 Running in Cycle:        30700000, Inst:         8593247
3674384843500: system.switch_cpus: Raw Gem5 Running in Cycle:        30800000, Inst:         8604390
3674434843500: system.switch_cpus: Raw Gem5 Running in Cycle:        30900000, Inst:         8615511
3674484843500: system.switch_cpus: Raw Gem5 Running in Cycle:        31000000, Inst:         8626412
3674534843500: system.switch_cpus: Raw Gem5 Running in Cycle:        31100000, Inst:         8637610
3674584843500: system.switch_cpus: Raw Gem5 Running in Cycle:        31200000, Inst:         8648907
3674634843500: system.switch_cpus: Raw Gem5 Running in Cycle:        31300000, Inst:         8659863
3674684843500: system.switch_cpus: Raw Gem5 Running in Cycle:        31400000, Inst:         8671248
3674734843500: system.switch_cpus: Raw Gem5 Running in Cycle:        31500000, Inst:         8682842
3674784843500: system.switch_cpus: Raw Gem5 Running in Cycle:        31600000, Inst:         8693930
3674834843500: system.switch_cpus: Raw Gem5 Running in Cycle:        31700000, Inst:         8705315
3674884843500: system.switch_cpus: Raw Gem5 Running in Cycle:        31800000, Inst:         8716986
3674934843500: system.switch_cpus: Raw Gem5 Running in Cycle:        31900000, Inst:         8728602
3674984843500: system.switch_cpus: Raw Gem5 Running in Cycle:        32000000, Inst:         8740130
3675034843500: system.switch_cpus: Raw Gem5 Running in Cycle:        32100000, Inst:         8751647
3675084843500: system.switch_cpus: Raw Gem5 Running in Cycle:        32200000, Inst:         8763087
3675134843500: system.switch_cpus: Raw Gem5 Running in Cycle:        32300000, Inst:         8774527
3675184843500: system.switch_cpus: Raw Gem5 Running in Cycle:        32400000, Inst:         8785505
3675234843500: system.switch_cpus: Raw Gem5 Running in Cycle:        32500000, Inst:         8797022
3675284843500: system.switch_cpus: Raw Gem5 Running in Cycle:        32600000, Inst:         8808143
3675334843500: system.switch_cpus: Raw Gem5 Running in Cycle:        32700000, Inst:         8818912
3675387850500: system.switch_cpus: Raw Gem5 Running in Cycle:        32800000, Inst:         8840159
3675446469500: system.switch_cpus: Raw Gem5 Running in Cycle:        32900000, Inst:         8982752
3675499031000: system.switch_cpus: Raw Gem5 Running in Cycle:        33000000, Inst:         9136719
3675551060500: system.switch_cpus: Raw Gem5 Running in Cycle:        33100000, Inst:         9330840
3675601820500: system.switch_cpus: Raw Gem5 Running in Cycle:        33200000, Inst:         9437749
3675651820500: system.switch_cpus: Raw Gem5 Running in Cycle:        33300000, Inst:         9449827
3675701820500: system.switch_cpus: Raw Gem5 Running in Cycle:        33400000, Inst:         9460948
3675751820500: system.switch_cpus: Raw Gem5 Running in Cycle:        33500000, Inst:         9472168
3675801820500: system.switch_cpus: Raw Gem5 Running in Cycle:        33600000, Inst:         9483377
3675851820500: system.switch_cpus: Raw Gem5 Running in Cycle:        33700000, Inst:         9494234
3675901820500: system.switch_cpus: Raw Gem5 Running in Cycle:        33800000, Inst:         9505300
3675951820500: system.switch_cpus: Raw Gem5 Running in Cycle:        33900000, Inst:         9516531
3676001820500: system.switch_cpus: Raw Gem5 Running in Cycle:        34000000, Inst:         9527311
3676051820500: system.switch_cpus: Raw Gem5 Running in Cycle:        34100000, Inst:         9538311
3676101820500: system.switch_cpus: Raw Gem5 Running in Cycle:        34200000, Inst:         9549366
3676151820500: system.switch_cpus: Raw Gem5 Running in Cycle:        34300000, Inst:         9560366
3676201820500: system.switch_cpus: Raw Gem5 Running in Cycle:        34400000, Inst:         9571542
3676251820500: system.switch_cpus: Raw Gem5 Running in Cycle:        34500000, Inst:         9582443
3676301820500: system.switch_cpus: Raw Gem5 Running in Cycle:        34600000, Inst:         9593652
3676351820500: system.switch_cpus: Raw Gem5 Running in Cycle:        34700000, Inst:         9605158
3676401820500: system.switch_cpus: Raw Gem5 Running in Cycle:        34800000, Inst:         9616543
3676451820500: system.switch_cpus: Raw Gem5 Running in Cycle:        34900000, Inst:         9627708
3676501820500: system.switch_cpus: Raw Gem5 Running in Cycle:        35000000, Inst:         9639434
3676551820500: system.switch_cpus: Raw Gem5 Running in Cycle:        35100000, Inst:         9651006
3676601820500: system.switch_cpus: Raw Gem5 Running in Cycle:        35200000, Inst:         9662358
3676651820500: system.switch_cpus: Raw Gem5 Running in Cycle:        35300000, Inst:         9673754
3676701820500: system.switch_cpus: Raw Gem5 Running in Cycle:        35400000, Inst:         9685106
3676751820500: system.switch_cpus: Raw Gem5 Running in Cycle:        35500000, Inst:         9696535
3676801820500: system.switch_cpus: Raw Gem5 Running in Cycle:        35600000, Inst:         9707469
3676851820500: system.switch_cpus: Raw Gem5 Running in Cycle:        35700000, Inst:         9718667
3676901820500: system.switch_cpus: Raw Gem5 Running in Cycle:        35800000, Inst:         9729975
3676951820500: system.switch_cpus: Raw Gem5 Running in Cycle:        35900000, Inst:         9741074
3677001820500: system.switch_cpus: Raw Gem5 Running in Cycle:        36000000, Inst:         9752107
3677056944000: system.switch_cpus: Raw Gem5 Running in Cycle:        36100000, Inst:         9869587
3677115455500: system.switch_cpus: Raw Gem5 Running in Cycle:        36200000, Inst:         9978392
3677165455500: system.switch_cpus: Raw Gem5 Running in Cycle:        36300000, Inst:        10032964
3677216597000: system.switch_cpus: Raw Gem5 Running in Cycle:        36400000, Inst:        10135220
3677270317000: system.switch_cpus: Raw Gem5 Running in Cycle:        36500000, Inst:        10327631
3677321081000: system.switch_cpus: Raw Gem5 Running in Cycle:        36600000, Inst:        10463746
3677371081000: system.switch_cpus: Raw Gem5 Running in Cycle:        36700000, Inst:        10475164
3677421081000: system.switch_cpus: Raw Gem5 Running in Cycle:        36800000, Inst:        10485900
3677471081000: system.switch_cpus: Raw Gem5 Running in Cycle:        36900000, Inst:        10496185
3677521081000: system.switch_cpus: Raw Gem5 Running in Cycle:        37000000, Inst:        10506646
3677571081000: system.switch_cpus: Raw Gem5 Running in Cycle:        37100000, Inst:        10517162
3677621081000: system.switch_cpus: Raw Gem5 Running in Cycle:        37200000, Inst:        10527656
3677671081000: system.switch_cpus: Raw Gem5 Running in Cycle:        37300000, Inst:        10538117
3677721081000: system.switch_cpus: Raw Gem5 Running in Cycle:        37400000, Inst:        10548468
3677771081000: system.switch_cpus: Raw Gem5 Running in Cycle:        37500000, Inst:        10558863
3677821081000: system.switch_cpus: Raw Gem5 Running in Cycle:        37600000, Inst:        10569445
3677871081000: system.switch_cpus: Raw Gem5 Running in Cycle:        37700000, Inst:        10579840
3677921081000: system.switch_cpus: Raw Gem5 Running in Cycle:        37800000, Inst:        10590345
3677971081000: system.switch_cpus: Raw Gem5 Running in Cycle:        37900000, Inst:        10600795
3678021081000: system.switch_cpus: Raw Gem5 Running in Cycle:        38000000, Inst:        10611168
3678071081000: system.switch_cpus: Raw Gem5 Running in Cycle:        38100000, Inst:        10621882
3678121081000: system.switch_cpus: Raw Gem5 Running in Cycle:        38200000, Inst:        10632486
3678171081000: system.switch_cpus: Raw Gem5 Running in Cycle:        38300000, Inst:        10643244
3678221081000: system.switch_cpus: Raw Gem5 Running in Cycle:        38400000, Inst:        10653925
3678271081000: system.switch_cpus: Raw Gem5 Running in Cycle:        38500000, Inst:        10664727
3678321081000: system.switch_cpus: Raw Gem5 Running in Cycle:        38600000, Inst:        10675397
3678371081000: system.switch_cpus: Raw Gem5 Running in Cycle:        38700000, Inst:        10686078
3678421081000: system.switch_cpus: Raw Gem5 Running in Cycle:        38800000, Inst:        10696704
3678471081000: system.switch_cpus: Raw Gem5 Running in Cycle:        38900000, Inst:        10707264
3678521081000: system.switch_cpus: Raw Gem5 Running in Cycle:        39000000, Inst:        10717857
3678571081000: system.switch_cpus: Raw Gem5 Running in Cycle:        39100000, Inst:        10728549
3678621081000: system.switch_cpus: Raw Gem5 Running in Cycle:        39200000, Inst:        10738768
3678671081000: system.switch_cpus: Raw Gem5 Running in Cycle:        39300000, Inst:        10749361
3678721081000: system.switch_cpus: Raw Gem5 Running in Cycle:        39400000, Inst:        10759855
3678771081000: system.switch_cpus: Raw Gem5 Running in Cycle:        39500000, Inst:        10770151
3678821081000: system.switch_cpus: Raw Gem5 Running in Cycle:        39600000, Inst:        10780271
3678880211000: system.switch_cpus: Raw Gem5 Running in Cycle:        39700000, Inst:        10862943
3678939234500: system.switch_cpus: Raw Gem5 Running in Cycle:        39800000, Inst:        11027083
3678991136000: system.switch_cpus: Raw Gem5 Running in Cycle:        39900000, Inst:        11165754
3679042934500: system.switch_cpus: Raw Gem5 Running in Cycle:        40000000, Inst:        11388141
3679093683500: system.switch_cpus: Raw Gem5 Running in Cycle:        40100000, Inst:        11448754
3679143683500: system.switch_cpus: Raw Gem5 Running in Cycle:        40200000, Inst:        11460436
3679193683500: system.switch_cpus: Raw Gem5 Running in Cycle:        40300000, Inst:        11471172
3679243683500: system.switch_cpus: Raw Gem5 Running in Cycle:        40400000, Inst:        11482205
3679293683500: system.switch_cpus: Raw Gem5 Running in Cycle:        40500000, Inst:        11493216
3679343683500: system.switch_cpus: Raw Gem5 Running in Cycle:        40600000, Inst:        11504260
3679393683500: system.switch_cpus: Raw Gem5 Running in Cycle:        40700000, Inst:        11514897
3679443683500: system.switch_cpus: Raw Gem5 Running in Cycle:        40800000, Inst:        11525600
3679493683500: system.switch_cpus: Raw Gem5 Running in Cycle:        40900000, Inst:        11536556
3679543683500: system.switch_cpus: Raw Gem5 Running in Cycle:        41000000, Inst:        11547413
3679593683500: system.switch_cpus: Raw Gem5 Running in Cycle:        41100000, Inst:        11558380
3679643683500: system.switch_cpus: Raw Gem5 Running in Cycle:        41200000, Inst:        11569391
3679693683500: system.switch_cpus: Raw Gem5 Running in Cycle:        41300000, Inst:        11580589
3679743683500: system.switch_cpus: Raw Gem5 Running in Cycle:        41400000, Inst:        11591589
3679793683500: system.switch_cpus: Raw Gem5 Running in Cycle:        41500000, Inst:        11602644
3679843683500: system.switch_cpus: Raw Gem5 Running in Cycle:        41600000, Inst:        11613996
3679893683500: system.switch_cpus: Raw Gem5 Running in Cycle:        41700000, Inst:        11625106
3679943683500: system.switch_cpus: Raw Gem5 Running in Cycle:        41800000, Inst:        11636381
3679993683500: system.switch_cpus: Raw Gem5 Running in Cycle:        41900000, Inst:        11647590
3680043683500: system.switch_cpus: Raw Gem5 Running in Cycle:        42000000, Inst:        11658986
3680093683500: system.switch_cpus: Raw Gem5 Running in Cycle:        42100000, Inst:        11670305
3680143683500: system.switch_cpus: Raw Gem5 Running in Cycle:        42200000, Inst:        11681602
3680193683500: system.switch_cpus: Raw Gem5 Running in Cycle:        42300000, Inst:        11692712
3680243683500: system.switch_cpus: Raw Gem5 Running in Cycle:        42400000, Inst:        11703877
3680293683500: system.switch_cpus: Raw Gem5 Running in Cycle:        42500000, Inst:        11715020
3680343683500: system.switch_cpus: Raw Gem5 Running in Cycle:        42600000, Inst:        11726152
3680393683500: system.switch_cpus: Raw Gem5 Running in Cycle:        42700000, Inst:        11737394
3680443683500: system.switch_cpus: Raw Gem5 Running in Cycle:        42800000, Inst:        11748163
3680493683500: system.switch_cpus: Raw Gem5 Running in Cycle:        42900000, Inst:        11759198
3680548904500: system.switch_cpus: Raw Gem5 Running in Cycle:        43000000, Inst:        11850055
3680606530000: system.switch_cpus: Raw Gem5 Running in Cycle:        43100000, Inst:        12006396
3680659640000: system.switch_cpus: Raw Gem5 Running in Cycle:        43200000, Inst:        12173304
3680712204000: system.switch_cpus: Raw Gem5 Running in Cycle:        43300000, Inst:        12361854
3680762204000: system.switch_cpus: Raw Gem5 Running in Cycle:        43400000, Inst:        12372612
3680812204000: system.switch_cpus: Raw Gem5 Running in Cycle:        43500000, Inst:        12384107
3680862204000: system.switch_cpus: Raw Gem5 Running in Cycle:        43600000, Inst:        12395151
3680912204000: system.switch_cpus: Raw Gem5 Running in Cycle:        43700000, Inst:        12406250
3680962204000: system.switch_cpus: Raw Gem5 Running in Cycle:        43800000, Inst:        12417338
3681012204000: system.switch_cpus: Raw Gem5 Running in Cycle:        43900000, Inst:        12428426
3681062204000: system.switch_cpus: Raw Gem5 Running in Cycle:        44000000, Inst:        12439625
3681112204000: system.switch_cpus: Raw Gem5 Running in Cycle:        44100000, Inst:        12450591
3681162204000: system.switch_cpus: Raw Gem5 Running in Cycle:        44200000, Inst:        12461657
3681212204000: system.switch_cpus: Raw Gem5 Running in Cycle:        44300000, Inst:        12472580
3681262204000: system.switch_cpus: Raw Gem5 Running in Cycle:        44400000, Inst:        12483712
3681312204000: system.switch_cpus: Raw Gem5 Running in Cycle:        44500000, Inst:        12494789
3681362204000: system.switch_cpus: Raw Gem5 Running in Cycle:        44600000, Inst:        12506053
3681412204000: system.switch_cpus: Raw Gem5 Running in Cycle:        44700000, Inst:        12516932
3681462204000: system.switch_cpus: Raw Gem5 Running in Cycle:        44800000, Inst:        12528647
3681512204000: system.switch_cpus: Raw Gem5 Running in Cycle:        44900000, Inst:        12539900
3681562204000: system.switch_cpus: Raw Gem5 Running in Cycle:        45000000, Inst:        12551241
3681612204000: system.switch_cpus: Raw Gem5 Running in Cycle:        45100000, Inst:        12562703
3681662204000: system.switch_cpus: Raw Gem5 Running in Cycle:        45200000, Inst:        12574363
3681712204000: system.switch_cpus: Raw Gem5 Running in Cycle:        45300000, Inst:        12585880
3681762204000: system.switch_cpus: Raw Gem5 Running in Cycle:        45400000, Inst:        12597331
3681812204000: system.switch_cpus: Raw Gem5 Running in Cycle:        45500000, Inst:        12608661
3681862204000: system.switch_cpus: Raw Gem5 Running in Cycle:        45600000, Inst:        12619980
3681912204000: system.switch_cpus: Raw Gem5 Running in Cycle:        45700000, Inst:        12631365
3681962204000: system.switch_cpus: Raw Gem5 Running in Cycle:        45800000, Inst:        12642508
3682012204000: system.switch_cpus: Raw Gem5 Running in Cycle:        45900000, Inst:        12653783
3682062204000: system.switch_cpus: Raw Gem5 Running in Cycle:        46000000, Inst:        12665223
3682112204000: system.switch_cpus: Raw Gem5 Running in Cycle:        46100000, Inst:        12676058
3682167621500: system.switch_cpus: Raw Gem5 Running in Cycle:        46200000, Inst:        12725897
3682225400000: system.switch_cpus: Raw Gem5 Running in Cycle:        46300000, Inst:        12889106
3682277802000: system.switch_cpus: Raw Gem5 Running in Cycle:        46400000, Inst:        13048405
3682330418500: system.switch_cpus: Raw Gem5 Running in Cycle:        46500000, Inst:        13269486
3682380433500: system.switch_cpus: Raw Gem5 Running in Cycle:        46600000, Inst:        13290878
3682430433500: system.switch_cpus: Raw Gem5 Running in Cycle:        46700000, Inst:        13302527
3682480433500: system.switch_cpus: Raw Gem5 Running in Cycle:        46800000, Inst:        13313527
3682530433500: system.switch_cpus: Raw Gem5 Running in Cycle:        46900000, Inst:        13324692
3682580433500: system.switch_cpus: Raw Gem5 Running in Cycle:        47000000, Inst:        13335626
3682630433500: system.switch_cpus: Raw Gem5 Running in Cycle:        47100000, Inst:        13347110
3682680433500: system.switch_cpus: Raw Gem5 Running in Cycle:        47200000, Inst:        13358088
3682730433500: system.switch_cpus: Raw Gem5 Running in Cycle:        47300000, Inst:        13369011
3682780433500: system.switch_cpus: Raw Gem5 Running in Cycle:        47400000, Inst:        13379890
3682830433500: system.switch_cpus: Raw Gem5 Running in Cycle:        47500000, Inst:        13390956
3682880433500: system.switch_cpus: Raw Gem5 Running in Cycle:        47600000, Inst:        13402000
3682930433500: system.switch_cpus: Raw Gem5 Running in Cycle:        47700000, Inst:        13413231
3682980433500: system.switch_cpus: Raw Gem5 Running in Cycle:        47800000, Inst:        13424451
3683030433500: system.switch_cpus: Raw Gem5 Running in Cycle:        47900000, Inst:        13435385
3683080433500: system.switch_cpus: Raw Gem5 Running in Cycle:        48000000, Inst:        13446902
3683130433500: system.switch_cpus: Raw Gem5 Running in Cycle:        48100000, Inst:        13458386
3683180433500: system.switch_cpus: Raw Gem5 Running in Cycle:        48200000, Inst:        13469573
3683230433500: system.switch_cpus: Raw Gem5 Running in Cycle:        48300000, Inst:        13481145
3683280433500: system.switch_cpus: Raw Gem5 Running in Cycle:        48400000, Inst:        13492652
3683330433500: system.switch_cpus: Raw Gem5 Running in Cycle:        48500000, Inst:        13504278
3683380433500: system.switch_cpus: Raw Gem5 Running in Cycle:        48600000, Inst:        13515674
3683430433500: system.switch_cpus: Raw Gem5 Running in Cycle:        48700000, Inst:        13526828
3683480433500: system.switch_cpus: Raw Gem5 Running in Cycle:        48800000, Inst:        13538444
3683530433500: system.switch_cpus: Raw Gem5 Running in Cycle:        48900000, Inst:        13549972
3683580433500: system.switch_cpus: Raw Gem5 Running in Cycle:        49000000, Inst:        13561027
3683630433500: system.switch_cpus: Raw Gem5 Running in Cycle:        49100000, Inst:        13572522
3683680433500: system.switch_cpus: Raw Gem5 Running in Cycle:        49200000, Inst:        13583709
3683730433500: system.switch_cpus: Raw Gem5 Running in Cycle:        49300000, Inst:        13594786
3683785205000: system.switch_cpus: Raw Gem5 Running in Cycle:        49400000, Inst:        13625692
3683842269500: system.switch_cpus: Raw Gem5 Running in Cycle:        49500000, Inst:        13787671
3683895564000: system.switch_cpus: Raw Gem5 Running in Cycle:        49600000, Inst:        13931505
3683947434000: system.switch_cpus: Raw Gem5 Running in Cycle:        49700000, Inst:        14155331
3683998180000: system.switch_cpus: Raw Gem5 Running in Cycle:        49800000, Inst:        14210901
3684048180000: system.switch_cpus: Raw Gem5 Running in Cycle:        49900000, Inst:        14222649
3684098180000: system.switch_cpus: Raw Gem5 Running in Cycle:        50000000, Inst:        14233737
3684148180000: system.switch_cpus: Raw Gem5 Running in Cycle:        50100000, Inst:        14244957
3684198180000: system.switch_cpus: Raw Gem5 Running in Cycle:        50200000, Inst:        14256023
3684248180000: system.switch_cpus: Raw Gem5 Running in Cycle:        50300000, Inst:        14267188
3684298180000: system.switch_cpus: Raw Gem5 Running in Cycle:        50400000, Inst:        14278111
3684348180000: system.switch_cpus: Raw Gem5 Running in Cycle:        50500000, Inst:        14289100
3684398180000: system.switch_cpus: Raw Gem5 Running in Cycle:        50600000, Inst:        14300287
3684448180000: system.switch_cpus: Raw Gem5 Running in Cycle:        50700000, Inst:        14311287
3684498180000: system.switch_cpus: Raw Gem5 Running in Cycle:        50800000, Inst:        14322045
3684548180000: system.switch_cpus: Raw Gem5 Running in Cycle:        50900000, Inst:        14333276
3684598180000: system.switch_cpus: Raw Gem5 Running in Cycle:        51000000, Inst:        14344331
3684648180000: system.switch_cpus: Raw Gem5 Running in Cycle:        51100000, Inst:        14355386
3684698180000: system.switch_cpus: Raw Gem5 Running in Cycle:        51200000, Inst:        14366584
3684748180000: system.switch_cpus: Raw Gem5 Running in Cycle:        51300000, Inst:        14378211
3684798180000: system.switch_cpus: Raw Gem5 Running in Cycle:        51400000, Inst:        14389244
3684848180000: system.switch_cpus: Raw Gem5 Running in Cycle:        51500000, Inst:        14400838
3684898180000: system.switch_cpus: Raw Gem5 Running in Cycle:        51600000, Inst:        14412178
3684948180000: system.switch_cpus: Raw Gem5 Running in Cycle:        51700000, Inst:        14423850
3684998180000: system.switch_cpus: Raw Gem5 Running in Cycle:        51800000, Inst:        14435081
3685048180000: system.switch_cpus: Raw Gem5 Running in Cycle:        51900000, Inst:        14446455
3685098180000: system.switch_cpus: Raw Gem5 Running in Cycle:        52000000, Inst:        14458016
3685148180000: system.switch_cpus: Raw Gem5 Running in Cycle:        52100000, Inst:        14469346
3685198180000: system.switch_cpus: Raw Gem5 Running in Cycle:        52200000, Inst:        14480467
3685248180000: system.switch_cpus: Raw Gem5 Running in Cycle:        52300000, Inst:        14491709
3685298180000: system.switch_cpus: Raw Gem5 Running in Cycle:        52400000, Inst:        14503061
3685348180000: system.switch_cpus: Raw Gem5 Running in Cycle:        52500000, Inst:        14514171
3685400768000: system.switch_cpus: Raw Gem5 Running in Cycle:        52600000, Inst:        14529143
3685460685500: system.switch_cpus: Raw Gem5 Running in Cycle:        52700000, Inst:        14667000
3685513844500: system.switch_cpus: Raw Gem5 Running in Cycle:        52800000, Inst:        14826021
3685566467500: system.switch_cpus: Raw Gem5 Running in Cycle:        52900000, Inst:        15012500
3685617291000: system.switch_cpus: Raw Gem5 Running in Cycle:        53000000, Inst:        15131114
3685667291000: system.switch_cpus: Raw Gem5 Running in Cycle:        53100000, Inst:        15142939
3685717291000: system.switch_cpus: Raw Gem5 Running in Cycle:        53200000, Inst:        15154038
3685767291000: system.switch_cpus: Raw Gem5 Running in Cycle:        53300000, Inst:        15165148
3685817291000: system.switch_cpus: Raw Gem5 Running in Cycle:        53400000, Inst:        15176280
3685867291000: system.switch_cpus: Raw Gem5 Running in Cycle:        53500000, Inst:        15187401
3685917291000: system.switch_cpus: Raw Gem5 Running in Cycle:        53600000, Inst:        15198434
3685967291000: system.switch_cpus: Raw Gem5 Running in Cycle:        53700000, Inst:        15209434
3686017291000: system.switch_cpus: Raw Gem5 Running in Cycle:        53800000, Inst:        15220687
3686067291000: system.switch_cpus: Raw Gem5 Running in Cycle:        53900000, Inst:        15231654
3686117291000: system.switch_cpus: Raw Gem5 Running in Cycle:        54000000, Inst:        15242566
3686167291000: system.switch_cpus: Raw Gem5 Running in Cycle:        54100000, Inst:        15253544
3686217291000: system.switch_cpus: Raw Gem5 Running in Cycle:        54200000, Inst:        15264830
3686267291000: system.switch_cpus: Raw Gem5 Running in Cycle:        54300000, Inst:        15275929
3686317291000: system.switch_cpus: Raw Gem5 Running in Cycle:        54400000, Inst:        15286940
3686367291000: system.switch_cpus: Raw Gem5 Running in Cycle:        54500000, Inst:        15298479
3686417291000: system.switch_cpus: Raw Gem5 Running in Cycle:        54600000, Inst:        15309699
3686467291000: system.switch_cpus: Raw Gem5 Running in Cycle:        54700000, Inst:        15321293
3686517291000: system.switch_cpus: Raw Gem5 Running in Cycle:        54800000, Inst:        15332711
3686567291000: system.switch_cpus: Raw Gem5 Running in Cycle:        54900000, Inst:        15344118
3686617291000: system.switch_cpus: Raw Gem5 Running in Cycle:        55000000, Inst:        15355426
3686667291000: system.switch_cpus: Raw Gem5 Running in Cycle:        55100000, Inst:        15366888
3686717291000: system.switch_cpus: Raw Gem5 Running in Cycle:        55200000, Inst:        15377921
3686767291000: system.switch_cpus: Raw Gem5 Running in Cycle:        55300000, Inst:        15389295
3686817291000: system.switch_cpus: Raw Gem5 Running in Cycle:        55400000, Inst:        15400372
3686867291000: system.switch_cpus: Raw Gem5 Running in Cycle:        55500000, Inst:        15411702
3686917291000: system.switch_cpus: Raw Gem5 Running in Cycle:        55600000, Inst:        15422977
3686967291000: system.switch_cpus: Raw Gem5 Running in Cycle:        55700000, Inst:        15434208
3687017291000: system.switch_cpus: Raw Gem5 Running in Cycle:        55800000, Inst:        15445307
3687074325500: system.switch_cpus: Raw Gem5 Running in Cycle:        55900000, Inst:        15518183
3687132358500: system.switch_cpus: Raw Gem5 Running in Cycle:        56000000, Inst:        15665205
3687183609500: system.switch_cpus: Raw Gem5 Running in Cycle:        56100000, Inst:        15745463
3687233609500: system.switch_cpus: Raw Gem5 Running in Cycle:        56200000, Inst:        15796761
3687284383500: system.switch_cpus: Raw Gem5 Running in Cycle:        56300000, Inst:        15900502
3687336924000: system.switch_cpus: Raw Gem5 Running in Cycle:        56400000, Inst:        16076366
3687387752000: system.switch_cpus: Raw Gem5 Running in Cycle:        56500000, Inst:        16216637
3687437752000: system.switch_cpus: Raw Gem5 Running in Cycle:        56600000, Inst:        16227747
3687487752000: system.switch_cpus: Raw Gem5 Running in Cycle:        56700000, Inst:        16238494
3687537752000: system.switch_cpus: Raw Gem5 Running in Cycle:        56800000, Inst:        16248900
3687587752000: system.switch_cpus: Raw Gem5 Running in Cycle:        56900000, Inst:        16259372
3687637752000: system.switch_cpus: Raw Gem5 Running in Cycle:        57000000, Inst:        16269723
3687687752000: system.switch_cpus: Raw Gem5 Running in Cycle:        57100000, Inst:        16280228
3687737752000: system.switch_cpus: Raw Gem5 Running in Cycle:        57200000, Inst:        16290689
3687787752000: system.switch_cpus: Raw Gem5 Running in Cycle:        57300000, Inst:        16300677
3687837752000: system.switch_cpus: Raw Gem5 Running in Cycle:        57400000, Inst:        16311149
3687887752000: system.switch_cpus: Raw Gem5 Running in Cycle:        57500000, Inst:        16321577
3687937752000: system.switch_cpus: Raw Gem5 Running in Cycle:        57600000, Inst:        16332082
3687987752000: system.switch_cpus: Raw Gem5 Running in Cycle:        57700000, Inst:        16342389
3688037752000: system.switch_cpus: Raw Gem5 Running in Cycle:        57800000, Inst:        16352674
3688087752000: system.switch_cpus: Raw Gem5 Running in Cycle:        57900000, Inst:        16362948
3688137752000: system.switch_cpus: Raw Gem5 Running in Cycle:        58000000, Inst:        16373629
3688187752000: system.switch_cpus: Raw Gem5 Running in Cycle:        58100000, Inst:        16384464
3688237752000: system.switch_cpus: Raw Gem5 Running in Cycle:        58200000, Inst:        16395288
3688287752000: system.switch_cpus: Raw Gem5 Running in Cycle:        58300000, Inst:        16406046
3688337752000: system.switch_cpus: Raw Gem5 Running in Cycle:        58400000, Inst:        16416760
3688387752000: system.switch_cpus: Raw Gem5 Running in Cycle:        58500000, Inst:        16427672
3688437752000: system.switch_cpus: Raw Gem5 Running in Cycle:        58600000, Inst:        16438100
3688487752000: system.switch_cpus: Raw Gem5 Running in Cycle:        58700000, Inst:        16448770
3688537752000: system.switch_cpus: Raw Gem5 Running in Cycle:        58800000, Inst:        16459165
3688587752000: system.switch_cpus: Raw Gem5 Running in Cycle:        58900000, Inst:        16469824
3688637752000: system.switch_cpus: Raw Gem5 Running in Cycle:        59000000, Inst:        16480219
3688687752000: system.switch_cpus: Raw Gem5 Running in Cycle:        59100000, Inst:        16490471
3688737752000: system.switch_cpus: Raw Gem5 Running in Cycle:        59200000, Inst:        16500778
3688787752000: system.switch_cpus: Raw Gem5 Running in Cycle:        59300000, Inst:        16511316
3688837752000: system.switch_cpus: Raw Gem5 Running in Cycle:        59400000, Inst:        16521425
3688887752000: system.switch_cpus: Raw Gem5 Running in Cycle:        59500000, Inst:        16531721
3688942913000: system.switch_cpus: Raw Gem5 Running in Cycle:        59600000, Inst:        16615888
3689001680000: system.switch_cpus: Raw Gem5 Running in Cycle:        59700000, Inst:        16769078
3689054175000: system.switch_cpus: Raw Gem5 Running in Cycle:        59800000, Inst:        16929811
3689106910500: system.switch_cpus: Raw Gem5 Running in Cycle:        59900000, Inst:        17132278
3689156910500: system.switch_cpus: Raw Gem5 Running in Cycle:        60000000, Inst:        17142948
3689206910500: system.switch_cpus: Raw Gem5 Running in Cycle:        60100000, Inst:        17154608
3689256910500: system.switch_cpus: Raw Gem5 Running in Cycle:        60200000, Inst:        17165762
3689306910500: system.switch_cpus: Raw Gem5 Running in Cycle:        60300000, Inst:        17176894
3689356910500: system.switch_cpus: Raw Gem5 Running in Cycle:        60400000, Inst:        17188081
3689406910500: system.switch_cpus: Raw Gem5 Running in Cycle:        60500000, Inst:        17199389
3689456910500: system.switch_cpus: Raw Gem5 Running in Cycle:        60600000, Inst:        17210367
3689506910500: system.switch_cpus: Raw Gem5 Running in Cycle:        60700000, Inst:        17221488
3689556910500: system.switch_cpus: Raw Gem5 Running in Cycle:        60800000, Inst:        17232455
3689606910500: system.switch_cpus: Raw Gem5 Running in Cycle:        60900000, Inst:        17243576
3689656910500: system.switch_cpus: Raw Gem5 Running in Cycle:        61000000, Inst:        17254818
3689706910500: system.switch_cpus: Raw Gem5 Running in Cycle:        61100000, Inst:        17265642
3689756910500: system.switch_cpus: Raw Gem5 Running in Cycle:        61200000, Inst:        17276895
3689806910500: system.switch_cpus: Raw Gem5 Running in Cycle:        61300000, Inst:        17287928
3689856910500: system.switch_cpus: Raw Gem5 Running in Cycle:        61400000, Inst:        17299621
3689906910500: system.switch_cpus: Raw Gem5 Running in Cycle:        61500000, Inst:        17310850
3689956910500: system.switch_cpus: Raw Gem5 Running in Cycle:        61600000, Inst:        17322215
3690006910500: system.switch_cpus: Raw Gem5 Running in Cycle:        61700000, Inst:        17333710
3690056910500: system.switch_cpus: Raw Gem5 Running in Cycle:        61800000, Inst:        17345579
3690106910500: system.switch_cpus: Raw Gem5 Running in Cycle:        61900000, Inst:        17357096
3690156910500: system.switch_cpus: Raw Gem5 Running in Cycle:        62000000, Inst:        17368371
3690206910500: system.switch_cpus: Raw Gem5 Running in Cycle:        62100000, Inst:        17379965
3690256910500: system.switch_cpus: Raw Gem5 Running in Cycle:        62200000, Inst:        17391625
3690306910500: system.switch_cpus: Raw Gem5 Running in Cycle:        62300000, Inst:        17403219
3690356910500: system.switch_cpus: Raw Gem5 Running in Cycle:        62400000, Inst:        17414395
3690406910500: system.switch_cpus: Raw Gem5 Running in Cycle:        62500000, Inst:        17425813
3690456910500: system.switch_cpus: Raw Gem5 Running in Cycle:        62600000, Inst:        17437275
3690506910500: system.switch_cpus: Raw Gem5 Running in Cycle:        62700000, Inst:        17448583
3690561162500: system.switch_cpus: Raw Gem5 Running in Cycle:        62800000, Inst:        17518037
3690618276000: system.switch_cpus: Raw Gem5 Running in Cycle:        62900000, Inst:        17668608
3690670774500: system.switch_cpus: Raw Gem5 Running in Cycle:        63000000, Inst:        17831893
3690723391500: system.switch_cpus: Raw Gem5 Running in Cycle:        63100000, Inst:        18044214
3690773398500: system.switch_cpus: Raw Gem5 Running in Cycle:        63200000, Inst:        18061745
3690823398500: system.switch_cpus: Raw Gem5 Running in Cycle:        63300000, Inst:        18073372
3690873398500: system.switch_cpus: Raw Gem5 Running in Cycle:        63400000, Inst:        18084614
3690923398500: system.switch_cpus: Raw Gem5 Running in Cycle:        63500000, Inst:        18095878
3690973398500: system.switch_cpus: Raw Gem5 Running in Cycle:        63600000, Inst:        18106867
3691023398500: system.switch_cpus: Raw Gem5 Running in Cycle:        63700000, Inst:        18118450
3691073398500: system.switch_cpus: Raw Gem5 Running in Cycle:        63800000, Inst:        18129593
3691123398500: system.switch_cpus: Raw Gem5 Running in Cycle:        63900000, Inst:        18140670
3691173398500: system.switch_cpus: Raw Gem5 Running in Cycle:        64000000, Inst:        18151813
3691223398500: system.switch_cpus: Raw Gem5 Running in Cycle:        64100000, Inst:        18162780
3691273398500: system.switch_cpus: Raw Gem5 Running in Cycle:        64200000, Inst:        18173857
3691323398500: system.switch_cpus: Raw Gem5 Running in Cycle:        64300000, Inst:        18184901
3691373398500: system.switch_cpus: Raw Gem5 Running in Cycle:        64400000, Inst:        18196066
3691423398500: system.switch_cpus: Raw Gem5 Running in Cycle:        64500000, Inst:        18207242
3691473398500: system.switch_cpus: Raw Gem5 Running in Cycle:        64600000, Inst:        18218935
3691523398500: system.switch_cpus: Raw Gem5 Running in Cycle:        64700000, Inst:        18230309
3691573398500: system.switch_cpus: Raw Gem5 Running in Cycle:        64800000, Inst:        18241782
3691623398500: system.switch_cpus: Raw Gem5 Running in Cycle:        64900000, Inst:        18253178
3691673398500: system.switch_cpus: Raw Gem5 Running in Cycle:        65000000, Inst:        18264893
3691723398500: system.switch_cpus: Raw Gem5 Running in Cycle:        65100000, Inst:        18276564
3691773398500: system.switch_cpus: Raw Gem5 Running in Cycle:        65200000, Inst:        18287839
3691823398500: system.switch_cpus: Raw Gem5 Running in Cycle:        65300000, Inst:        18299410
3691873398500: system.switch_cpus: Raw Gem5 Running in Cycle:        65400000, Inst:        18311016
3691923398500: system.switch_cpus: Raw Gem5 Running in Cycle:        65500000, Inst:        18322610
3691973398500: system.switch_cpus: Raw Gem5 Running in Cycle:        65600000, Inst:        18333984
3692023398500: system.switch_cpus: Raw Gem5 Running in Cycle:        65700000, Inst:        18345358
3692073398500: system.switch_cpus: Raw Gem5 Running in Cycle:        65800000, Inst:        18356710
3692123398500: system.switch_cpus: Raw Gem5 Running in Cycle:        65900000, Inst:        18367754
3692178063000: system.switch_cpus: Raw Gem5 Running in Cycle:        66000000, Inst:        18426349
3692235204000: system.switch_cpus: Raw Gem5 Running in Cycle:        66100000, Inst:        18583336
3692287435000: system.switch_cpus: Raw Gem5 Running in Cycle:        66200000, Inst:        18741427
3692339997000: system.switch_cpus: Raw Gem5 Running in Cycle:        66300000, Inst:        18961506
3692390011000: system.switch_cpus: Raw Gem5 Running in Cycle:        66400000, Inst:        18982415
3692440011000: system.switch_cpus: Raw Gem5 Running in Cycle:        66500000, Inst:        18993866
3692490011000: system.switch_cpus: Raw Gem5 Running in Cycle:        66600000, Inst:        19004877
3692540011000: system.switch_cpus: Raw Gem5 Running in Cycle:        66700000, Inst:        19016129
3692590011000: system.switch_cpus: Raw Gem5 Running in Cycle:        66800000, Inst:        19027273
3692640011000: system.switch_cpus: Raw Gem5 Running in Cycle:        66900000, Inst:        19038559
3692690011000: system.switch_cpus: Raw Gem5 Running in Cycle:        67000000, Inst:        19049581
3692740011000: system.switch_cpus: Raw Gem5 Running in Cycle:        67100000, Inst:        19060471
3692790011000: system.switch_cpus: Raw Gem5 Running in Cycle:        67200000, Inst:        19071548
3692840011000: system.switch_cpus: Raw Gem5 Running in Cycle:        67300000, Inst:        19082471
3692890011000: system.switch_cpus: Raw Gem5 Running in Cycle:        67400000, Inst:        19093592
3692940011000: system.switch_cpus: Raw Gem5 Running in Cycle:        67500000, Inst:        19104669
3692990011000: system.switch_cpus: Raw Gem5 Running in Cycle:        67600000, Inst:        19115790
3693040011000: system.switch_cpus: Raw Gem5 Running in Cycle:        67700000, Inst:        19126691
3693090011000: system.switch_cpus: Raw Gem5 Running in Cycle:        67800000, Inst:        19138406
3693140011000: system.switch_cpus: Raw Gem5 Running in Cycle:        67900000, Inst:        19149637
3693190011000: system.switch_cpus: Raw Gem5 Running in Cycle:        68000000, Inst:        19160824
3693240011000: system.switch_cpus: Raw Gem5 Running in Cycle:        68100000, Inst:        19172275
3693290011000: system.switch_cpus: Raw Gem5 Running in Cycle:        68200000, Inst:        19183858
3693340011000: system.switch_cpus: Raw Gem5 Running in Cycle:        68300000, Inst:        19195430
3693390011000: system.switch_cpus: Raw Gem5 Running in Cycle:        68400000, Inst:        19207079
3693440011000: system.switch_cpus: Raw Gem5 Running in Cycle:        68500000, Inst:        19218541
3693490011000: system.switch_cpus: Raw Gem5 Running in Cycle:        68600000, Inst:        19230014
3693540011000: system.switch_cpus: Raw Gem5 Running in Cycle:        68700000, Inst:        19241289
3693590011000: system.switch_cpus: Raw Gem5 Running in Cycle:        68800000, Inst:        19252454
3693640011000: system.switch_cpus: Raw Gem5 Running in Cycle:        68900000, Inst:        19263993
3693690011000: system.switch_cpus: Raw Gem5 Running in Cycle:        69000000, Inst:        19275180
3693740011000: system.switch_cpus: Raw Gem5 Running in Cycle:        69100000, Inst:        19286070
3693793850500: system.switch_cpus: Raw Gem5 Running in Cycle:        69200000, Inst:        19316801
3693850892000: system.switch_cpus: Raw Gem5 Running in Cycle:        69300000, Inst:        19476317
3693903337000: system.switch_cpus: Raw Gem5 Running in Cycle:        69400000, Inst:        19616040
3693955219000: system.switch_cpus: Raw Gem5 Running in Cycle:        69500000, Inst:        19838944
3694005962000: system.switch_cpus: Raw Gem5 Running in Cycle:        69600000, Inst:        19902006
3694055962000: system.switch_cpus: Raw Gem5 Running in Cycle:        69700000, Inst:        19913941
3694105962000: system.switch_cpus: Raw Gem5 Running in Cycle:        69800000, Inst:        19925150
3694155962000: system.switch_cpus: Raw Gem5 Running in Cycle:        69900000, Inst:        19936447
3694205962000: system.switch_cpus: Raw Gem5 Running in Cycle:        70000000, Inst:        19947579
3694255962000: system.switch_cpus: Raw Gem5 Running in Cycle:        70100000, Inst:        19958865
3694305962000: system.switch_cpus: Raw Gem5 Running in Cycle:        70200000, Inst:        19969755
3694355962000: system.switch_cpus: Raw Gem5 Running in Cycle:        70300000, Inst:        19980810
3694405962000: system.switch_cpus: Raw Gem5 Running in Cycle:        70400000, Inst:        19991997
3694455962000: system.switch_cpus: Raw Gem5 Running in Cycle:        70500000, Inst:        20002920
3694505962000: system.switch_cpus: Raw Gem5 Running in Cycle:        70600000, Inst:        20014105
3694555962000: system.switch_cpus: Raw Gem5 Running in Cycle:        70700000, Inst:        20025283
3694605962000: system.switch_cpus: Raw Gem5 Running in Cycle:        70800000, Inst:        20036481
3694655962000: system.switch_cpus: Raw Gem5 Running in Cycle:        70900000, Inst:        20047470
3694705962000: system.switch_cpus: Raw Gem5 Running in Cycle:        71000000, Inst:        20059020
3694755962000: system.switch_cpus: Raw Gem5 Running in Cycle:        71100000, Inst:        20070482
3694805962000: system.switch_cpus: Raw Gem5 Running in Cycle:        71200000, Inst:        20081911
3694855962000: system.switch_cpus: Raw Gem5 Running in Cycle:        71300000, Inst:        20093571
3694905962000: system.switch_cpus: Raw Gem5 Running in Cycle:        71400000, Inst:        20105231
3694955962000: system.switch_cpus: Raw Gem5 Running in Cycle:        71500000, Inst:        20116803
3695005962000: system.switch_cpus: Raw Gem5 Running in Cycle:        71600000, Inst:        20128287
3695055962000: system.switch_cpus: Raw Gem5 Running in Cycle:        71700000, Inst:        20139837
3695105962000: system.switch_cpus: Raw Gem5 Running in Cycle:        71800000, Inst:        20151431
3695155962000: system.switch_cpus: Raw Gem5 Running in Cycle:        71900000, Inst:        20162761
3695205962000: system.switch_cpus: Raw Gem5 Running in Cycle:        72000000, Inst:        20173882
3695255962000: system.switch_cpus: Raw Gem5 Running in Cycle:        72100000, Inst:        20185245
3695305962000: system.switch_cpus: Raw Gem5 Running in Cycle:        72200000, Inst:        20196212
3695355962000: system.switch_cpus: Raw Gem5 Running in Cycle:        72300000, Inst:        20207322
3695409930000: system.switch_cpus: Raw Gem5 Running in Cycle:        72400000, Inst:        20230004
3695467421000: system.switch_cpus: Raw Gem5 Running in Cycle:        72500000, Inst:        20380456
3695519841000: system.switch_cpus: Raw Gem5 Running in Cycle:        72600000, Inst:        20529211
3695571850000: system.switch_cpus: Raw Gem5 Running in Cycle:        72700000, Inst:        20734593
3695622592500: system.switch_cpus: Raw Gem5 Running in Cycle:        72800000, Inst:        20823937
3695672592500: system.switch_cpus: Raw Gem5 Running in Cycle:        72900000, Inst:        20835883
3695722592500: system.switch_cpus: Raw Gem5 Running in Cycle:        73000000, Inst:        20846839
3695772592500: system.switch_cpus: Raw Gem5 Running in Cycle:        73100000, Inst:        20858004
3695822592500: system.switch_cpus: Raw Gem5 Running in Cycle:        73200000, Inst:        20869224
3695872592500: system.switch_cpus: Raw Gem5 Running in Cycle:        73300000, Inst:        20880444
3695922592500: system.switch_cpus: Raw Gem5 Running in Cycle:        73400000, Inst:        20891510
3695972592500: system.switch_cpus: Raw Gem5 Running in Cycle:        73500000, Inst:        20902620
3696022592500: system.switch_cpus: Raw Gem5 Running in Cycle:        73600000, Inst:        20913829
3696072592500: system.switch_cpus: Raw Gem5 Running in Cycle:        73700000, Inst:        20924840
3696122592500: system.switch_cpus: Raw Gem5 Running in Cycle:        73800000, Inst:        20935829
3696172592500: system.switch_cpus: Raw Gem5 Running in Cycle:        73900000, Inst:        20946906
3696222592500: system.switch_cpus: Raw Gem5 Running in Cycle:        74000000, Inst:        20958038
3696272592500: system.switch_cpus: Raw Gem5 Running in Cycle:        74100000, Inst:        20968785
3696322592500: system.switch_cpus: Raw Gem5 Running in Cycle:        74200000, Inst:        20980401
3696372592500: system.switch_cpus: Raw Gem5 Running in Cycle:        74300000, Inst:        20991852
3696422592500: system.switch_cpus: Raw Gem5 Running in Cycle:        74400000, Inst:        21003182
3696472592500: system.switch_cpus: Raw Gem5 Running in Cycle:        74500000, Inst:        21014677
3696522592500: system.switch_cpus: Raw Gem5 Running in Cycle:        74600000, Inst:        21026216
3696572592500: system.switch_cpus: Raw Gem5 Running in Cycle:        74700000, Inst:        21037876
3696622592500: system.switch_cpus: Raw Gem5 Running in Cycle:        74800000, Inst:        21049327
3696672592500: system.switch_cpus: Raw Gem5 Running in Cycle:        74900000, Inst:        21060910
3696722592500: system.switch_cpus: Raw Gem5 Running in Cycle:        75000000, Inst:        21072262
3696772592500: system.switch_cpus: Raw Gem5 Running in Cycle:        75100000, Inst:        21083812
3696822592500: system.switch_cpus: Raw Gem5 Running in Cycle:        75200000, Inst:        21095175
3696872592500: system.switch_cpus: Raw Gem5 Running in Cycle:        75300000, Inst:        21106406
3696922592500: system.switch_cpus: Raw Gem5 Running in Cycle:        75400000, Inst:        21117692
3696972592500: system.switch_cpus: Raw Gem5 Running in Cycle:        75500000, Inst:        21129033
3697024912000: system.switch_cpus: Raw Gem5 Running in Cycle:        75600000, Inst:        21145016
3697083466000: system.switch_cpus: Raw Gem5 Running in Cycle:        75700000, Inst:        21283784
3697136409000: system.switch_cpus: Raw Gem5 Running in Cycle:        75800000, Inst:        21440550
[...]
3843621845500: system.switch_cpus: Raw Gem5 Running in Cycle:       366800000, Inst:        97303920
3843671845500: system.switch_cpus: Raw Gem5 Running in Cycle:       366900000, Inst:        97317323
3843721845500: system.switch_cpus: Raw Gem5 Running in Cycle:       367000000, Inst:        97330518
3843771845500: system.switch_cpus: Raw Gem5 Running in Cycle:       367100000, Inst:        97344103
3843821845500: system.switch_cpus: Raw Gem5 Running in Cycle:       367200000, Inst:        97357948
3843871845500: system.switch_cpus: Raw Gem5 Running in Cycle:       367300000, Inst:        97371403
3843921845500: system.switch_cpus: Raw Gem5 Running in Cycle:       367400000, Inst:        97384806
3843971845500: system.switch_cpus: Raw Gem5 Running in Cycle:       367500000, Inst:        97398521
3844021845500: system.switch_cpus: Raw Gem5 Running in Cycle:       367600000, Inst:        97411729
3844071845500: system.switch_cpus: Raw Gem5 Running in Cycle:       367700000, Inst:        97425366
3844121845500: system.switch_cpus: Raw Gem5 Running in Cycle:       367800000, Inst:        97439250
3844171845500: system.switch_cpus: Raw Gem5 Running in Cycle:       367900000, Inst:        97453095
3844221845500: system.switch_cpus: Raw Gem5 Running in Cycle:       368000000, Inst:        97467044
3844271845500: system.switch_cpus: Raw Gem5 Running in Cycle:       368100000, Inst:        97480733
3844321845500: system.switch_cpus: Raw Gem5 Running in Cycle:       368200000, Inst:        97494968
3844371845500: system.switch_cpus: Raw Gem5 Running in Cycle:       368300000, Inst:        97509190
3844421845500: system.switch_cpus: Raw Gem5 Running in Cycle:       368400000, Inst:        97523217
3844471845500: system.switch_cpus: Raw Gem5 Running in Cycle:       368500000, Inst:        97536919
3844521845500: system.switch_cpus: Raw Gem5 Running in Cycle:       368600000, Inst:        97550478
3844571845500: system.switch_cpus: Raw Gem5 Running in Cycle:       368700000, Inst:        97564102
3844621845500: system.switch_cpus: Raw Gem5 Running in Cycle:       368800000, Inst:        97578168
3844671845500: system.switch_cpus: Raw Gem5 Running in Cycle:       368900000, Inst:        97591285
3844721845500: system.switch_cpus: Raw Gem5 Running in Cycle:       369000000, Inst:        97604597
3844771845500: system.switch_cpus: Raw Gem5 Running in Cycle:       369100000, Inst:        97618635
3844821845500: system.switch_cpus: Raw Gem5 Running in Cycle:       369200000, Inst:        97632939
3844871845500: system.switch_cpus: Raw Gem5 Running in Cycle:       369300000, Inst:        97647070
3844921845500: system.switch_cpus: Raw Gem5 Running in Cycle:       369400000, Inst:        97660941
3844971845500: system.switch_cpus: Raw Gem5 Running in Cycle:       369500000, Inst:        97674591
3845021845500: system.switch_cpus: Raw Gem5 Running in Cycle:       369600000, Inst:        97688059
3845071845500: system.switch_cpus: Raw Gem5 Running in Cycle:       369700000, Inst:        97701657
3845121845500: system.switch_cpus: Raw Gem5 Running in Cycle:       369800000, Inst:        97714891
3845171845500: system.switch_cpus: Raw Gem5 Running in Cycle:       369900000, Inst:        97728619
3845221845500: system.switch_cpus: Raw Gem5 Running in Cycle:       370000000, Inst:        97742098
3845271845500: system.switch_cpus: Raw Gem5 Running in Cycle:       370100000, Inst:        97755425
3845321845500: system.switch_cpus: Raw Gem5 Running in Cycle:       370200000, Inst:        97769037
3845371845500: system.switch_cpus: Raw Gem5 Running in Cycle:       370300000, Inst:        97782751
3845421845500: system.switch_cpus: Raw Gem5 Running in Cycle:       370400000, Inst:        97795998
3845471845500: system.switch_cpus: Raw Gem5 Running in Cycle:       370500000, Inst:        97809674
3845521845500: system.switch_cpus: Raw Gem5 Running in Cycle:       370600000, Inst:        97823727
3845571845500: system.switch_cpus: Raw Gem5 Running in Cycle:       370700000, Inst:        97837390
3845621845500: system.switch_cpus: Raw Gem5 Running in Cycle:       370800000, Inst:        97851261
3845671845500: system.switch_cpus: Raw Gem5 Running in Cycle:       370900000, Inst:        97865197
3845721845500: system.switch_cpus: Raw Gem5 Running in Cycle:       371000000, Inst:        97879523
3845771845500: system.switch_cpus: Raw Gem5 Running in Cycle:       371100000, Inst:        97893771
3845821845500: system.switch_cpus: Raw Gem5 Running in Cycle:       371200000, Inst:        97907902
3845871845500: system.switch_cpus: Raw Gem5 Running in Cycle:       371300000, Inst:        97922020
3845921845500: system.switch_cpus: Raw Gem5 Running in Cycle:       371400000, Inst:        97935982
3845971845500: system.switch_cpus: Raw Gem5 Running in Cycle:       371500000, Inst:        97949489
3846021845500: system.switch_cpus: Raw Gem5 Running in Cycle:       371600000, Inst:        97963477
3846071845500: system.switch_cpus: Raw Gem5 Running in Cycle:       371700000, Inst:        97976750
3846121845500: system.switch_cpus: Raw Gem5 Running in Cycle:       371800000, Inst:        97989971
3846171845500: system.switch_cpus: Raw Gem5 Running in Cycle:       371900000, Inst:        98003804
3846221845500: system.switch_cpus: Raw Gem5 Running in Cycle:       372000000, Inst:        98018531
3846271845500: system.switch_cpus: Raw Gem5 Running in Cycle:       372100000, Inst:        98032610
3846321845500: system.switch_cpus: Raw Gem5 Running in Cycle:       372200000, Inst:        98046273
3846371845500: system.switch_cpus: Raw Gem5 Running in Cycle:       372300000, Inst:        98059884
3846421845500: system.switch_cpus: Raw Gem5 Running in Cycle:       372400000, Inst:        98073430
3846471845500: system.switch_cpus: Raw Gem5 Running in Cycle:       372500000, Inst:        98087015
3846521845500: system.switch_cpus: Raw Gem5 Running in Cycle:       372600000, Inst:        98100041
3846571845500: system.switch_cpus: Raw Gem5 Running in Cycle:       372700000, Inst:        98113730
3846621845500: system.switch_cpus: Raw Gem5 Running in Cycle:       372800000, Inst:        98127471
3846671845500: system.switch_cpus: Raw Gem5 Running in Cycle:       372900000, Inst:        98140627
3846721845500: system.switch_cpus: Raw Gem5 Running in Cycle:       373000000, Inst:        98154589
3846771845500: system.switch_cpus: Raw Gem5 Running in Cycle:       373100000, Inst:        98168239
3846821845500: system.switch_cpus: Raw Gem5 Running in Cycle:       373200000, Inst:        98181304
3846871845500: system.switch_cpus: Raw Gem5 Running in Cycle:       373300000, Inst:        98195099
3846921845500: system.switch_cpus: Raw Gem5 Running in Cycle:       373400000, Inst:        98209098
3846971845500: system.switch_cpus: Raw Gem5 Running in Cycle:       373500000, Inst:        98222813
3847021845500: system.switch_cpus: Raw Gem5 Running in Cycle:       373600000, Inst:        98236658
3847071845500: system.switch_cpus: Raw Gem5 Running in Cycle:       373700000, Inst:        98250776
3847121845500: system.switch_cpus: Raw Gem5 Running in Cycle:       373800000, Inst:        98265024
3847171845500: system.switch_cpus: Raw Gem5 Running in Cycle:       373900000, Inst:        98279311
3847221845500: system.switch_cpus: Raw Gem5 Running in Cycle:       374000000, Inst:        98293273
3847271845500: system.switch_cpus: Raw Gem5 Running in Cycle:       374100000, Inst:        98307183
3847321845500: system.switch_cpus: Raw Gem5 Running in Cycle:       374200000, Inst:        98320768
3847371845500: system.switch_cpus: Raw Gem5 Running in Cycle:       374300000, Inst:        98334301
3847421845500: system.switch_cpus: Raw Gem5 Running in Cycle:       374400000, Inst:        98348133
3847471845500: system.switch_cpus: Raw Gem5 Running in Cycle:       374500000, Inst:        98361484
3847521845500: system.switch_cpus: Raw Gem5 Running in Cycle:       374600000, Inst:        98374952
3847571845500: system.switch_cpus: Raw Gem5 Running in Cycle:       374700000, Inst:        98388458
3847621845500: system.switch_cpus: Raw Gem5 Running in Cycle:       374800000, Inst:        98403379
3847671845500: system.switch_cpus: Raw Gem5 Running in Cycle:       374900000, Inst:        98417172
3847721845500: system.switch_cpus: Raw Gem5 Running in Cycle:       375000000, Inst:        98430744
3847771845500: system.switch_cpus: Raw Gem5 Running in Cycle:       375100000, Inst:        98444485
3847821845500: system.switch_cpus: Raw Gem5 Running in Cycle:       375200000, Inst:        98458031
3847871845500: system.switch_cpus: Raw Gem5 Running in Cycle:       375300000, Inst:        98471434
3847921845500: system.switch_cpus: Raw Gem5 Running in Cycle:       375400000, Inst:        98484447
3847971845500: system.switch_cpus: Raw Gem5 Running in Cycle:       375500000, Inst:        98498136
3848021845500: system.switch_cpus: Raw Gem5 Running in Cycle:       375600000, Inst:        98511747
3848071845500: system.switch_cpus: Raw Gem5 Running in Cycle:       375700000, Inst:        98524929
3848121845500: system.switch_cpus: Raw Gem5 Running in Cycle:       375800000, Inst:        98538995
3848171845500: system.switch_cpus: Raw Gem5 Running in Cycle:       375900000, Inst:        98552736
3848221845500: system.switch_cpus: Raw Gem5 Running in Cycle:       376000000, Inst:        98565684
3848271845500: system.switch_cpus: Raw Gem5 Running in Cycle:       376100000, Inst:        98579607
3848321845500: system.switch_cpus: Raw Gem5 Running in Cycle:       376200000, Inst:        98593504
3848371845500: system.switch_cpus: Raw Gem5 Running in Cycle:       376300000, Inst:        98607167
3848421845500: system.switch_cpus: Raw Gem5 Running in Cycle:       376400000, Inst:        98621012
3848471845500: system.switch_cpus: Raw Gem5 Running in Cycle:       376500000, Inst:        98634961
3848521845500: system.switch_cpus: Raw Gem5 Running in Cycle:       376600000, Inst:        98649209
3848571845500: system.switch_cpus: Raw Gem5 Running in Cycle:       376700000, Inst:        98663431
3848621845500: system.switch_cpus: Raw Gem5 Running in Cycle:       376800000, Inst:        98677185
3848671845500: system.switch_cpus: Raw Gem5 Running in Cycle:       376900000, Inst:        98690978
3848721845500: system.switch_cpus: Raw Gem5 Running in Cycle:       377000000, Inst:        98704602
3848771845500: system.switch_cpus: Raw Gem5 Running in Cycle:       377100000, Inst:        98718135
3848821845500: system.switch_cpus: Raw Gem5 Running in Cycle:       377200000, Inst:        98732136
3848871845500: system.switch_cpus: Raw Gem5 Running in Cycle:       377300000, Inst:        98745370
3848921845500: system.switch_cpus: Raw Gem5 Running in Cycle:       377400000, Inst:        98758721
3848971845500: system.switch_cpus: Raw Gem5 Running in Cycle:       377500000, Inst:        98773319
3849021845500: system.switch_cpus: Raw Gem5 Running in Cycle:       377600000, Inst:        98788269
3849071845500: system.switch_cpus: Raw Gem5 Running in Cycle:       377700000, Inst:        98801932
3849121845500: system.switch_cpus: Raw Gem5 Running in Cycle:       377800000, Inst:        98816024
3849171845500: system.switch_cpus: Raw Gem5 Running in Cycle:       377900000, Inst:        98829843
3849221845500: system.switch_cpus: Raw Gem5 Running in Cycle:       378000000, Inst:        98843467
3849271845500: system.switch_cpus: Raw Gem5 Running in Cycle:       378100000, Inst:        98857080
3849321845500: system.switch_cpus: Raw Gem5 Running in Cycle:       378200000, Inst:        98870624
3849371845500: system.switch_cpus: Raw Gem5 Running in Cycle:       378300000, Inst:        98884521
3849421845500: system.switch_cpus: Raw Gem5 Running in Cycle:       378400000, Inst:        98898158
3849471845500: system.switch_cpus: Raw Gem5 Running in Cycle:       378500000, Inst:        98911743
3849521845500: system.switch_cpus: Raw Gem5 Running in Cycle:       378600000, Inst:        98925770
3849571845500: system.switch_cpus: Raw Gem5 Running in Cycle:       378700000, Inst:        98939277
3849621845500: system.switch_cpus: Raw Gem5 Running in Cycle:       378800000, Inst:        98953044
3849671845500: system.switch_cpus: Raw Gem5 Running in Cycle:       378900000, Inst:        98967643
3849721845500: system.switch_cpus: Raw Gem5 Running in Cycle:       379000000, Inst:        98981839
3849771845500: system.switch_cpus: Raw Gem5 Running in Cycle:       379100000, Inst:        98995853
3849821845500: system.switch_cpus: Raw Gem5 Running in Cycle:       379200000, Inst:        99009854
3849871845500: system.switch_cpus: Raw Gem5 Running in Cycle:       379300000, Inst:        99024544
3849921845500: system.switch_cpus: Raw Gem5 Running in Cycle:       379400000, Inst:        99038961
3849971845500: system.switch_cpus: Raw Gem5 Running in Cycle:       379500000, Inst:        99053079
3850021845500: system.switch_cpus: Raw Gem5 Running in Cycle:       379600000, Inst:        99067574
3850071845500: system.switch_cpus: Raw Gem5 Running in Cycle:       379700000, Inst:        99081445
3850121845500: system.switch_cpus: Raw Gem5 Running in Cycle:       379800000, Inst:        99095498
3850171845500: system.switch_cpus: Raw Gem5 Running in Cycle:       379900000, Inst:        99109577
3850221845500: system.switch_cpus: Raw Gem5 Running in Cycle:       380000000, Inst:        99123370
3850271845500: system.switch_cpus: Raw Gem5 Running in Cycle:       380100000, Inst:        99136916
3850321845500: system.switch_cpus: Raw Gem5 Running in Cycle:       380200000, Inst:        99150536
3850371845500: system.switch_cpus: Raw Gem5 Running in Cycle:       380300000, Inst:        99170280
3850421845500: system.switch_cpus: Raw Gem5 Running in Cycle:       380400000, Inst:        99184333
3850471845500: system.switch_cpus: Raw Gem5 Running in Cycle:       380500000, Inst:        99197918
3850521845500: system.switch_cpus: Raw Gem5 Running in Cycle:       380600000, Inst:        99211516
3850571845500: system.switch_cpus: Raw Gem5 Running in Cycle:       380700000, Inst:        99225023
3850621845500: system.switch_cpus: Raw Gem5 Running in Cycle:       380800000, Inst:        99238478
3850671845500: system.switch_cpus: Raw Gem5 Running in Cycle:       380900000, Inst:        99251374
3850721845500: system.switch_cpus: Raw Gem5 Running in Cycle:       381000000, Inst:        99265115
3850771845500: system.switch_cpus: Raw Gem5 Running in Cycle:       381100000, Inst:        99278830
3850821845500: system.switch_cpus: Raw Gem5 Running in Cycle:       381200000, Inst:        99292035
3850871845500: system.switch_cpus: Raw Gem5 Running in Cycle:       381300000, Inst:        99305896
3850921845500: system.switch_cpus: Raw Gem5 Running in Cycle:       381400000, Inst:        99319559
3850971845500: system.switch_cpus: Raw Gem5 Running in Cycle:       381500000, Inst:        99332650
3851021845500: system.switch_cpus: Raw Gem5 Running in Cycle:       381600000, Inst:        99346430
3851071845500: system.switch_cpus: Raw Gem5 Running in Cycle:       381700000, Inst:        99360444
3851121845500: system.switch_cpus: Raw Gem5 Running in Cycle:       381800000, Inst:        99374133
3851171845500: system.switch_cpus: Raw Gem5 Running in Cycle:       381900000, Inst:        99387991
3851221845500: system.switch_cpus: Raw Gem5 Running in Cycle:       382000000, Inst:        99402122
3851271845500: system.switch_cpus: Raw Gem5 Running in Cycle:       382100000, Inst:        99416422
3851321845500: system.switch_cpus: Raw Gem5 Running in Cycle:       382200000, Inst:        99430644
3851371845500: system.switch_cpus: Raw Gem5 Running in Cycle:       382300000, Inst:        99444567
3851421845500: system.switch_cpus: Raw Gem5 Running in Cycle:       382400000, Inst:        99458477
3851471845500: system.switch_cpus: Raw Gem5 Running in Cycle:       382500000, Inst:        99472114
3851521845500: system.switch_cpus: Raw Gem5 Running in Cycle:       382600000, Inst:        99485621
3851571845500: system.switch_cpus: Raw Gem5 Running in Cycle:       382700000, Inst:        99499427
3851621845500: system.switch_cpus: Raw Gem5 Running in Cycle:       382800000, Inst:        99512817
3851671845500: system.switch_cpus: Raw Gem5 Running in Cycle:       382900000, Inst:        99526298
3851721845500: system.switch_cpus: Raw Gem5 Running in Cycle:       383000000, Inst:        99539879
3851771845500: system.switch_cpus: Raw Gem5 Running in Cycle:       383100000, Inst:        99554749
3851821845500: system.switch_cpus: Raw Gem5 Running in Cycle:       383200000, Inst:        99568451
3851871845500: system.switch_cpus: Raw Gem5 Running in Cycle:       383300000, Inst:        99582088
3851921845500: system.switch_cpus: Raw Gem5 Running in Cycle:       383400000, Inst:        99595855
3851971845500: system.switch_cpus: Raw Gem5 Running in Cycle:       383500000, Inst:        99609401
3852021845500: system.switch_cpus: Raw Gem5 Running in Cycle:       383600000, Inst:        99622765
3852071845500: system.switch_cpus: Raw Gem5 Running in Cycle:       383700000, Inst:        99635796
3852121845500: system.switch_cpus: Raw Gem5 Running in Cycle:       383800000, Inst:        99649506
3852171845500: system.switch_cpus: Raw Gem5 Running in Cycle:       383900000, Inst:        99663104
3852221845500: system.switch_cpus: Raw Gem5 Running in Cycle:       384000000, Inst:        99676223
3852271845500: system.switch_cpus: Raw Gem5 Running in Cycle:       384100000, Inst:        99690339
3852321845500: system.switch_cpus: Raw Gem5 Running in Cycle:       384200000, Inst:        99704106
3852371845500: system.switch_cpus: Raw Gem5 Running in Cycle:       384300000, Inst:        99716989
3852421845500: system.switch_cpus: Raw Gem5 Running in Cycle:       384400000, Inst:        99730964
3852471845500: system.switch_cpus: Raw Gem5 Running in Cycle:       384500000, Inst:        99744874
3852521845500: system.switch_cpus: Raw Gem5 Running in Cycle:       384600000, Inst:        99758498
3852571845500: system.switch_cpus: Raw Gem5 Running in Cycle:       384700000, Inst:        99772447
3852621845500: system.switch_cpus: Raw Gem5 Running in Cycle:       384800000, Inst:        99786331
3852671845500: system.switch_cpus: Raw Gem5 Running in Cycle:       384900000, Inst:        99800579
3852721845500: system.switch_cpus: Raw Gem5 Running in Cycle:       385000000, Inst:        99814723
3852771845500: system.switch_cpus: Raw Gem5 Running in Cycle:       385100000, Inst:        99828594
3852821845500: system.switch_cpus: Raw Gem5 Running in Cycle:       385200000, Inst:        99842296
3852871845500: system.switch_cpus: Raw Gem5 Running in Cycle:       385300000, Inst:        99855922
3852921845500: system.switch_cpus: Raw Gem5 Running in Cycle:       385400000, Inst:        99869505
3852971845500: system.switch_cpus: Raw Gem5 Running in Cycle:       385500000, Inst:        99883506
3853021845500: system.switch_cpus: Raw Gem5 Running in Cycle:       385600000, Inst:        99896740
3853071845500: system.switch_cpus: Raw Gem5 Running in Cycle:       385700000, Inst:        99910065
3853121845500: system.switch_cpus: Raw Gem5 Running in Cycle:       385800000, Inst:        99923742
3853171845500: system.switch_cpus: Raw Gem5 Running in Cycle:       385900000, Inst:        99938669
3853221845500: system.switch_cpus: Raw Gem5 Running in Cycle:       386000000, Inst:        99952620
3853271845500: system.switch_cpus: Raw Gem5 Running in Cycle:       386100000, Inst:        99966294
3853321845500: system.switch_cpus: Raw Gem5 Running in Cycle:       386200000, Inst:        99980022
3853371845500: system.switch_cpus: Raw Gem5 Running in Cycle:       386300000, Inst:        99993516
Exiting @ tick 3853395269500 because a thread reached the max instruction count
end time:(year-mon-day hour-minute-second)19-03-30 22-35-28
