
---------- Begin Simulation Statistics ----------
final_tick                               940672306000                       # Number of ticks from beginning of simulation (restored from checkpoints and never reset)
host_inst_rate                                 315309                       # Simulator instruction rate (inst/s)
host_mem_usage                                8524864                       # Number of bytes of host memory used
host_op_rate                                   315309                       # Simulator op (including micro ops) rate (op/s)
host_seconds                                   317.15                       # Real time elapsed on the host
host_tick_rate                               49594685                       # Simulator tick rate (ticks/s)
sim_freq                                 1000000000000                       # Frequency of simulated ticks
sim_insts                                   100000021                       # Number of instructions simulated
sim_ops                                     100000021                       # Number of ops (including micro ops) simulated
sim_seconds                                  0.015729                       # Number of seconds simulated
sim_ticks                                 15728943000                       # Number of ticks simulated
system.clk_domain.clock                          1000                       # Clock period in ticks
system.cpu.Branches                                 1                       # Number of branches fetched
system.cpu.committedInsts                          20                       # Number of instructions committed
system.cpu.committedOps                            20                       # Number of ops (including micro ops) committed
system.cpu.dcache.LoadLockedReq_accesses::.switch_cpus.data          476                       # number of LoadLockedReq accesses(hits+misses)
system.cpu.dcache.LoadLockedReq_accesses::total          476                       # number of LoadLockedReq accesses(hits+misses)
system.cpu.dcache.LoadLockedReq_avg_miss_latency::.switch_cpus.data        42625                       # average LoadLockedReq miss latency
system.cpu.dcache.LoadLockedReq_avg_miss_latency::total        42625                       # average LoadLockedReq miss latency
system.cpu.dcache.LoadLockedReq_avg_mshr_miss_latency::.switch_cpus.data        37500                       # average LoadLockedReq mshr miss latency
system.cpu.dcache.LoadLockedReq_avg_mshr_miss_latency::total        37500                       # average LoadLockedReq mshr miss latency
system.cpu.dcache.LoadLockedReq_hits::.switch_cpus.data          464                       # number of LoadLockedReq hits
system.cpu.dcache.LoadLockedReq_hits::total          464                       # number of LoadLockedReq hits
system.cpu.dcache.LoadLockedReq_miss_latency::.switch_cpus.data       511500                       # number of LoadLockedReq miss cycles
system.cpu.dcache.LoadLockedReq_miss_latency::total       511500                       # number of LoadLockedReq miss cycles
system.cpu.dcache.LoadLockedReq_miss_rate::.switch_cpus.data     0.025210                       # miss rate for LoadLockedReq accesses
system.cpu.dcache.LoadLockedReq_miss_rate::total     0.025210                       # miss rate for LoadLockedReq accesses
system.cpu.dcache.LoadLockedReq_misses::.switch_cpus.data           12                       # number of LoadLockedReq misses
system.cpu.dcache.LoadLockedReq_misses::total           12                       # number of LoadLockedReq misses
system.cpu.dcache.LoadLockedReq_mshr_hits::.switch_cpus.data            6                       # number of LoadLockedReq MSHR hits
system.cpu.dcache.LoadLockedReq_mshr_hits::total            6                       # number of LoadLockedReq MSHR hits
system.cpu.dcache.LoadLockedReq_mshr_miss_latency::.switch_cpus.data       225000                       # number of LoadLockedReq MSHR miss cycles
system.cpu.dcache.LoadLockedReq_mshr_miss_latency::total       225000                       # number of LoadLockedReq MSHR miss cycles
system.cpu.dcache.LoadLockedReq_mshr_miss_rate::.switch_cpus.data     0.012605                       # mshr miss rate for LoadLockedReq accesses
system.cpu.dcache.LoadLockedReq_mshr_miss_rate::total     0.012605                       # mshr miss rate for LoadLockedReq accesses
system.cpu.dcache.LoadLockedReq_mshr_misses::.switch_cpus.data            6                       # number of LoadLockedReq MSHR misses
system.cpu.dcache.LoadLockedReq_mshr_misses::total            6                       # number of LoadLockedReq MSHR misses
system.cpu.dcache.ReadReq_accesses::.cpu.data            4                       # number of ReadReq accesses(hits+misses)
system.cpu.dcache.ReadReq_accesses::.switch_cpus.data     25382679                       # number of ReadReq accesses(hits+misses)
system.cpu.dcache.ReadReq_accesses::total     25382683                       # number of ReadReq accesses(hits+misses)
system.cpu.dcache.ReadReq_avg_miss_latency::.switch_cpus.data 21045.062481                       # average ReadReq miss latency
system.cpu.dcache.ReadReq_avg_miss_latency::total 21044.836989                       # average ReadReq miss latency
system.cpu.dcache.ReadReq_avg_mshr_miss_latency::.switch_cpus.data 13757.542240                       # average ReadReq mshr miss latency
system.cpu.dcache.ReadReq_avg_mshr_miss_latency::total 13757.542240                       # average ReadReq mshr miss latency
system.cpu.dcache.ReadReq_hits::.switch_cpus.data     25009364                       # number of ReadReq hits
system.cpu.dcache.ReadReq_hits::total        25009364                       # number of ReadReq hits
system.cpu.dcache.ReadReq_miss_latency::.switch_cpus.data   7856437500                       # number of ReadReq miss cycles
system.cpu.dcache.ReadReq_miss_latency::total   7856437500                       # number of ReadReq miss cycles
system.cpu.dcache.ReadReq_miss_rate::.cpu.data            1                       # miss rate for ReadReq accesses
system.cpu.dcache.ReadReq_miss_rate::.switch_cpus.data     0.014707                       # miss rate for ReadReq accesses
system.cpu.dcache.ReadReq_miss_rate::total     0.014708                       # miss rate for ReadReq accesses
system.cpu.dcache.ReadReq_misses::.cpu.data            4                       # number of ReadReq misses
system.cpu.dcache.ReadReq_misses::.switch_cpus.data       373315                       # number of ReadReq misses
system.cpu.dcache.ReadReq_misses::total        373319                       # number of ReadReq misses
system.cpu.dcache.ReadReq_mshr_hits::.switch_cpus.data       222332                       # number of ReadReq MSHR hits
system.cpu.dcache.ReadReq_mshr_hits::total       222332                       # number of ReadReq MSHR hits
system.cpu.dcache.ReadReq_mshr_miss_latency::.switch_cpus.data   2077155000                       # number of ReadReq MSHR miss cycles
system.cpu.dcache.ReadReq_mshr_miss_latency::total   2077155000                       # number of ReadReq MSHR miss cycles
system.cpu.dcache.ReadReq_mshr_miss_rate::.switch_cpus.data     0.005948                       # mshr miss rate for ReadReq accesses
system.cpu.dcache.ReadReq_mshr_miss_rate::total     0.005948                       # mshr miss rate for ReadReq accesses
system.cpu.dcache.ReadReq_mshr_misses::.switch_cpus.data       150983                       # number of ReadReq MSHR misses
system.cpu.dcache.ReadReq_mshr_misses::total       150983                       # number of ReadReq MSHR misses
system.cpu.dcache.StoreCondReq_accesses::.switch_cpus.data          468                       # number of StoreCondReq accesses(hits+misses)
system.cpu.dcache.StoreCondReq_accesses::total          468                       # number of StoreCondReq accesses(hits+misses)
system.cpu.dcache.StoreCondReq_hits::.switch_cpus.data          468                       # number of StoreCondReq hits
system.cpu.dcache.StoreCondReq_hits::total          468                       # number of StoreCondReq hits
system.cpu.dcache.WriteReq_accesses::.cpu.data            4                       # number of WriteReq accesses(hits+misses)
system.cpu.dcache.WriteReq_accesses::.switch_cpus.data     12039302                       # number of WriteReq accesses(hits+misses)
system.cpu.dcache.WriteReq_accesses::total     12039306                       # number of WriteReq accesses(hits+misses)
system.cpu.dcache.WriteReq_avg_miss_latency::.switch_cpus.data 42391.039770                       # average WriteReq miss latency
system.cpu.dcache.WriteReq_avg_miss_latency::total 42391.009074                       # average WriteReq miss latency
system.cpu.dcache.WriteReq_avg_mshr_miss_latency::.switch_cpus.data 48616.825665                       # average WriteReq mshr miss latency
system.cpu.dcache.WriteReq_avg_mshr_miss_latency::total 48616.825665                       # average WriteReq mshr miss latency
system.cpu.dcache.WriteReq_hits::.cpu.data            3                       # number of WriteReq hits
system.cpu.dcache.WriteReq_hits::.switch_cpus.data     10658323                       # number of WriteReq hits
system.cpu.dcache.WriteReq_hits::total       10658326                       # number of WriteReq hits
system.cpu.dcache.WriteReq_miss_latency::.switch_cpus.data  58541135711                       # number of WriteReq miss cycles
system.cpu.dcache.WriteReq_miss_latency::total  58541135711                       # number of WriteReq miss cycles
system.cpu.dcache.WriteReq_miss_rate::.cpu.data     0.250000                       # miss rate for WriteReq accesses
system.cpu.dcache.WriteReq_miss_rate::.switch_cpus.data     0.114706                       # miss rate for WriteReq accesses
system.cpu.dcache.WriteReq_miss_rate::total     0.114706                       # miss rate for WriteReq accesses
system.cpu.dcache.WriteReq_misses::.cpu.data            1                       # number of WriteReq misses
system.cpu.dcache.WriteReq_misses::.switch_cpus.data      1380979                       # number of WriteReq misses
system.cpu.dcache.WriteReq_misses::total      1380980                       # number of WriteReq misses
system.cpu.dcache.WriteReq_mshr_hits::.switch_cpus.data      1173350                       # number of WriteReq MSHR hits
system.cpu.dcache.WriteReq_mshr_hits::total      1173350                       # number of WriteReq MSHR hits
system.cpu.dcache.WriteReq_mshr_miss_latency::.switch_cpus.data  10094262896                       # number of WriteReq MSHR miss cycles
system.cpu.dcache.WriteReq_mshr_miss_latency::total  10094262896                       # number of WriteReq MSHR miss cycles
system.cpu.dcache.WriteReq_mshr_miss_rate::.switch_cpus.data     0.017246                       # mshr miss rate for WriteReq accesses
system.cpu.dcache.WriteReq_mshr_miss_rate::total     0.017246                       # mshr miss rate for WriteReq accesses
system.cpu.dcache.WriteReq_mshr_misses::.switch_cpus.data       207629                       # number of WriteReq MSHR misses
system.cpu.dcache.WriteReq_mshr_misses::total       207629                       # number of WriteReq MSHR misses
system.cpu.dcache.avg_blocked_cycles::no_mshrs    13.277853                       # average number of cycles each access was blocked
system.cpu.dcache.avg_blocked_cycles::no_targets           50                       # average number of cycles each access was blocked
system.cpu.dcache.blocked::no_mshrs             21299                       # number of cycles access was blocked
system.cpu.dcache.blocked::no_targets               1                       # number of cycles access was blocked
system.cpu.dcache.blocked_cycles::no_mshrs       282805                       # number of cycles access was blocked
system.cpu.dcache.blocked_cycles::no_targets           50                       # number of cycles access was blocked
system.cpu.dcache.demand_accesses::.cpu.data            8                       # number of demand (read+write) accesses
system.cpu.dcache.demand_accesses::.switch_cpus.data     37421981                       # number of demand (read+write) accesses
system.cpu.dcache.demand_accesses::total     37421989                       # number of demand (read+write) accesses
system.cpu.dcache.demand_avg_miss_latency::.switch_cpus.data 37848.600754                       # average overall miss latency
system.cpu.dcache.demand_avg_miss_latency::total 37848.492880                       # average overall miss latency
system.cpu.dcache.demand_avg_mshr_miss_latency::.switch_cpus.data 33940.353072                       # average overall mshr miss latency
system.cpu.dcache.demand_avg_mshr_miss_latency::total 33940.353072                       # average overall mshr miss latency
system.cpu.dcache.demand_hits::.cpu.data            3                       # number of demand (read+write) hits
system.cpu.dcache.demand_hits::.switch_cpus.data     35667687                       # number of demand (read+write) hits
system.cpu.dcache.demand_hits::total         35667690                       # number of demand (read+write) hits
system.cpu.dcache.demand_miss_latency::.switch_cpus.data  66397573211                       # number of demand (read+write) miss cycles
system.cpu.dcache.demand_miss_latency::total  66397573211                       # number of demand (read+write) miss cycles
system.cpu.dcache.demand_miss_rate::.cpu.data     0.625000                       # miss rate for demand accesses
system.cpu.dcache.demand_miss_rate::.switch_cpus.data     0.046879                       # miss rate for demand accesses
system.cpu.dcache.demand_miss_rate::total     0.046879                       # miss rate for demand accesses
system.cpu.dcache.demand_misses::.cpu.data            5                       # number of demand (read+write) misses
system.cpu.dcache.demand_misses::.switch_cpus.data      1754294                       # number of demand (read+write) misses
system.cpu.dcache.demand_misses::total        1754299                       # number of demand (read+write) misses
system.cpu.dcache.demand_mshr_hits::.switch_cpus.data      1395682                       # number of demand (read+write) MSHR hits
system.cpu.dcache.demand_mshr_hits::total      1395682                       # number of demand (read+write) MSHR hits
system.cpu.dcache.demand_mshr_miss_latency::.switch_cpus.data  12171417896                       # number of demand (read+write) MSHR miss cycles
system.cpu.dcache.demand_mshr_miss_latency::total  12171417896                       # number of demand (read+write) MSHR miss cycles
system.cpu.dcache.demand_mshr_miss_rate::.switch_cpus.data     0.009583                       # mshr miss rate for demand accesses
system.cpu.dcache.demand_mshr_miss_rate::total     0.009583                       # mshr miss rate for demand accesses
system.cpu.dcache.demand_mshr_misses::.switch_cpus.data       358612                       # number of demand (read+write) MSHR misses
system.cpu.dcache.demand_mshr_misses::total       358612                       # number of demand (read+write) MSHR misses
system.cpu.dcache.overall_accesses::.cpu.data            8                       # number of overall (read+write) accesses
system.cpu.dcache.overall_accesses::.switch_cpus.data     37421981                       # number of overall (read+write) accesses
system.cpu.dcache.overall_accesses::total     37421989                       # number of overall (read+write) accesses
system.cpu.dcache.overall_avg_miss_latency::.switch_cpus.data 37848.600754                       # average overall miss latency
system.cpu.dcache.overall_avg_miss_latency::total 37848.492880                       # average overall miss latency
system.cpu.dcache.overall_avg_mshr_miss_latency::.switch_cpus.data 33940.353072                       # average overall mshr miss latency
system.cpu.dcache.overall_avg_mshr_miss_latency::total 33940.353072                       # average overall mshr miss latency
system.cpu.dcache.overall_hits::.cpu.data            3                       # number of overall hits
system.cpu.dcache.overall_hits::.switch_cpus.data     35667687                       # number of overall hits
system.cpu.dcache.overall_hits::total        35667690                       # number of overall hits
system.cpu.dcache.overall_miss_latency::.switch_cpus.data  66397573211                       # number of overall miss cycles
system.cpu.dcache.overall_miss_latency::total  66397573211                       # number of overall miss cycles
system.cpu.dcache.overall_miss_rate::.cpu.data     0.625000                       # miss rate for overall accesses
system.cpu.dcache.overall_miss_rate::.switch_cpus.data     0.046879                       # miss rate for overall accesses
system.cpu.dcache.overall_miss_rate::total     0.046879                       # miss rate for overall accesses
system.cpu.dcache.overall_misses::.cpu.data            5                       # number of overall misses
system.cpu.dcache.overall_misses::.switch_cpus.data      1754294                       # number of overall misses
system.cpu.dcache.overall_misses::total       1754299                       # number of overall misses
system.cpu.dcache.overall_mshr_hits::.switch_cpus.data      1395682                       # number of overall MSHR hits
system.cpu.dcache.overall_mshr_hits::total      1395682                       # number of overall MSHR hits
system.cpu.dcache.overall_mshr_miss_latency::.switch_cpus.data  12171417896                       # number of overall MSHR miss cycles
system.cpu.dcache.overall_mshr_miss_latency::total  12171417896                       # number of overall MSHR miss cycles
system.cpu.dcache.overall_mshr_miss_rate::.switch_cpus.data     0.009583                       # mshr miss rate for overall accesses
system.cpu.dcache.overall_mshr_miss_rate::total     0.009583                       # mshr miss rate for overall accesses
system.cpu.dcache.overall_mshr_misses::.switch_cpus.data       358612                       # number of overall MSHR misses
system.cpu.dcache.overall_mshr_misses::total       358612                       # number of overall MSHR misses
system.cpu.dcache.pwrStateResidencyTicks::UNDEFINED 940672306000                       # Cumulative time (in ticks) in various power states
system.cpu.dcache.replacements                 358111                       # number of replacements
system.cpu.dcache.tags.age_task_id_blocks_1024::0          201                       # Occupied blocks per task id
system.cpu.dcache.tags.age_task_id_blocks_1024::1          191                       # Occupied blocks per task id
system.cpu.dcache.tags.age_task_id_blocks_1024::2          101                       # Occupied blocks per task id
system.cpu.dcache.tags.age_task_id_blocks_1024::3           12                       # Occupied blocks per task id
system.cpu.dcache.tags.age_task_id_blocks_1024::4            7                       # Occupied blocks per task id
system.cpu.dcache.tags.avg_refs            100.459940                       # Average number of references to valid blocks.
system.cpu.dcache.tags.data_accesses        299742087                       # Number of data accesses
system.cpu.dcache.tags.occ_blocks::.cpu.data     0.055930                       # Average occupied blocks per requestor
system.cpu.dcache.tags.occ_blocks::.switch_cpus.data   511.488506                       # Average occupied blocks per requestor
system.cpu.dcache.tags.occ_percent::.cpu.data     0.000109                       # Average percentage of cache occupancy
system.cpu.dcache.tags.occ_percent::.switch_cpus.data     0.999001                       # Average percentage of cache occupancy
system.cpu.dcache.tags.occ_percent::total     0.999110                       # Average percentage of cache occupancy
system.cpu.dcache.tags.occ_task_id_blocks::1024          512                       # Occupied blocks per task id
system.cpu.dcache.tags.occ_task_id_percent::1024            1                       # Percentage of cache occupancy per task id
system.cpu.dcache.tags.pwrStateResidencyTicks::UNDEFINED 940672306000                       # Cumulative time (in ticks) in various power states
system.cpu.dcache.tags.sampled_refs            358623                       # Sample count of references to valid blocks.
system.cpu.dcache.tags.tag_accesses         299742087                       # Number of tag accesses
system.cpu.dcache.tags.tagsinuse           511.544436                       # Cycle average of tags in use
system.cpu.dcache.tags.total_refs            36027245                       # Total number of references to valid blocks.
system.cpu.dcache.tags.warmup_cycle      924943363500                       # Cycle when the warmup percentage was hit.
system.cpu.dcache.writebacks::.writebacks       211804                       # number of writebacks
system.cpu.dcache.writebacks::total            211804                       # number of writebacks
system.cpu.dtb.data_accesses                        8                       # DTB accesses
system.cpu.dtb.data_acv                             0                       # DTB access violations
system.cpu.dtb.data_hits                            8                       # DTB hits
system.cpu.dtb.data_misses                          0                       # DTB misses
system.cpu.dtb.fetch_accesses                       0                       # ITB accesses
system.cpu.dtb.fetch_acv                            0                       # ITB acv
system.cpu.dtb.fetch_hits                           0                       # ITB hits
system.cpu.dtb.fetch_misses                         0                       # ITB misses
system.cpu.dtb.pwrStateResidencyTicks::UNDEFINED 940672306000                       # Cumulative time (in ticks) in various power states
system.cpu.dtb.read_accesses                        4                       # DTB read accesses
system.cpu.dtb.read_acv                             0                       # DTB read access violations
system.cpu.dtb.read_hits                            4                       # DTB read hits
system.cpu.dtb.read_misses                          0                       # DTB read misses
system.cpu.dtb.write_accesses                       4                       # DTB write accesses
system.cpu.dtb.write_acv                            0                       # DTB write access violations
system.cpu.dtb.write_hits                           4                       # DTB write hits
system.cpu.dtb.write_misses                         0                       # DTB write misses
system.cpu.icache.ReadReq_accesses::.cpu.inst           20                       # number of ReadReq accesses(hits+misses)
system.cpu.icache.ReadReq_accesses::.switch_cpus.inst      8878124                       # number of ReadReq accesses(hits+misses)
system.cpu.icache.ReadReq_accesses::total      8878144                       # number of ReadReq accesses(hits+misses)
system.cpu.icache.ReadReq_avg_miss_latency::.switch_cpus.inst 64388.757396                       # average ReadReq miss latency
system.cpu.icache.ReadReq_avg_miss_latency::total 64236.717828                       # average ReadReq miss latency
system.cpu.icache.ReadReq_avg_mshr_miss_latency::.switch_cpus.inst 64008.270677                       # average ReadReq mshr miss latency
system.cpu.icache.ReadReq_avg_mshr_miss_latency::total 64008.270677                       # average ReadReq mshr miss latency
system.cpu.icache.ReadReq_hits::.cpu.inst           18                       # number of ReadReq hits
system.cpu.icache.ReadReq_hits::.switch_cpus.inst      8877279                       # number of ReadReq hits
system.cpu.icache.ReadReq_hits::total         8877297                       # number of ReadReq hits
system.cpu.icache.ReadReq_miss_latency::.switch_cpus.inst     54408500                       # number of ReadReq miss cycles
system.cpu.icache.ReadReq_miss_latency::total     54408500                       # number of ReadReq miss cycles
system.cpu.icache.ReadReq_miss_rate::.cpu.inst     0.100000                       # miss rate for ReadReq accesses
system.cpu.icache.ReadReq_miss_rate::.switch_cpus.inst     0.000095                       # miss rate for ReadReq accesses
system.cpu.icache.ReadReq_miss_rate::total     0.000095                       # miss rate for ReadReq accesses
system.cpu.icache.ReadReq_misses::.cpu.inst            2                       # number of ReadReq misses
system.cpu.icache.ReadReq_misses::.switch_cpus.inst          845                       # number of ReadReq misses
system.cpu.icache.ReadReq_misses::total           847                       # number of ReadReq misses
system.cpu.icache.ReadReq_mshr_hits::.switch_cpus.inst          180                       # number of ReadReq MSHR hits
system.cpu.icache.ReadReq_mshr_hits::total          180                       # number of ReadReq MSHR hits
system.cpu.icache.ReadReq_mshr_miss_latency::.switch_cpus.inst     42565500                       # number of ReadReq MSHR miss cycles
system.cpu.icache.ReadReq_mshr_miss_latency::total     42565500                       # number of ReadReq MSHR miss cycles
system.cpu.icache.ReadReq_mshr_miss_rate::.switch_cpus.inst     0.000075                       # mshr miss rate for ReadReq accesses
system.cpu.icache.ReadReq_mshr_miss_rate::total     0.000075                       # mshr miss rate for ReadReq accesses
system.cpu.icache.ReadReq_mshr_misses::.switch_cpus.inst          665                       # number of ReadReq MSHR misses
system.cpu.icache.ReadReq_mshr_misses::total          665                       # number of ReadReq MSHR misses
system.cpu.icache.avg_blocked_cycles::no_mshrs            8                       # average number of cycles each access was blocked
system.cpu.icache.avg_blocked_cycles::no_targets          nan                       # average number of cycles each access was blocked
system.cpu.icache.blocked::no_mshrs                 1                       # number of cycles access was blocked
system.cpu.icache.blocked::no_targets               0                       # number of cycles access was blocked
system.cpu.icache.blocked_cycles::no_mshrs            8                       # number of cycles access was blocked
system.cpu.icache.blocked_cycles::no_targets            0                       # number of cycles access was blocked
system.cpu.icache.demand_accesses::.cpu.inst           20                       # number of demand (read+write) accesses
system.cpu.icache.demand_accesses::.switch_cpus.inst      8878124                       # number of demand (read+write) accesses
system.cpu.icache.demand_accesses::total      8878144                       # number of demand (read+write) accesses
system.cpu.icache.demand_avg_miss_latency::.switch_cpus.inst 64388.757396                       # average overall miss latency
system.cpu.icache.demand_avg_miss_latency::total 64236.717828                       # average overall miss latency
system.cpu.icache.demand_avg_mshr_miss_latency::.switch_cpus.inst 64008.270677                       # average overall mshr miss latency
system.cpu.icache.demand_avg_mshr_miss_latency::total 64008.270677                       # average overall mshr miss latency
system.cpu.icache.demand_hits::.cpu.inst           18                       # number of demand (read+write) hits
system.cpu.icache.demand_hits::.switch_cpus.inst      8877279                       # number of demand (read+write) hits
system.cpu.icache.demand_hits::total          8877297                       # number of demand (read+write) hits
system.cpu.icache.demand_miss_latency::.switch_cpus.inst     54408500                       # number of demand (read+write) miss cycles
system.cpu.icache.demand_miss_latency::total     54408500                       # number of demand (read+write) miss cycles
system.cpu.icache.demand_miss_rate::.cpu.inst     0.100000                       # miss rate for demand accesses
system.cpu.icache.demand_miss_rate::.switch_cpus.inst     0.000095                       # miss rate for demand accesses
system.cpu.icache.demand_miss_rate::total     0.000095                       # miss rate for demand accesses
system.cpu.icache.demand_misses::.cpu.inst            2                       # number of demand (read+write) misses
system.cpu.icache.demand_misses::.switch_cpus.inst          845                       # number of demand (read+write) misses
system.cpu.icache.demand_misses::total            847                       # number of demand (read+write) misses
system.cpu.icache.demand_mshr_hits::.switch_cpus.inst          180                       # number of demand (read+write) MSHR hits
system.cpu.icache.demand_mshr_hits::total          180                       # number of demand (read+write) MSHR hits
system.cpu.icache.demand_mshr_miss_latency::.switch_cpus.inst     42565500                       # number of demand (read+write) MSHR miss cycles
system.cpu.icache.demand_mshr_miss_latency::total     42565500                       # number of demand (read+write) MSHR miss cycles
system.cpu.icache.demand_mshr_miss_rate::.switch_cpus.inst     0.000075                       # mshr miss rate for demand accesses
system.cpu.icache.demand_mshr_miss_rate::total     0.000075                       # mshr miss rate for demand accesses
system.cpu.icache.demand_mshr_misses::.switch_cpus.inst          665                       # number of demand (read+write) MSHR misses
system.cpu.icache.demand_mshr_misses::total          665                       # number of demand (read+write) MSHR misses
system.cpu.icache.overall_accesses::.cpu.inst           20                       # number of overall (read+write) accesses
system.cpu.icache.overall_accesses::.switch_cpus.inst      8878124                       # number of overall (read+write) accesses
system.cpu.icache.overall_accesses::total      8878144                       # number of overall (read+write) accesses
system.cpu.icache.overall_avg_miss_latency::.switch_cpus.inst 64388.757396                       # average overall miss latency
system.cpu.icache.overall_avg_miss_latency::total 64236.717828                       # average overall miss latency
system.cpu.icache.overall_avg_mshr_miss_latency::.switch_cpus.inst 64008.270677                       # average overall mshr miss latency
system.cpu.icache.overall_avg_mshr_miss_latency::total 64008.270677                       # average overall mshr miss latency
system.cpu.icache.overall_hits::.cpu.inst           18                       # number of overall hits
system.cpu.icache.overall_hits::.switch_cpus.inst      8877279                       # number of overall hits
system.cpu.icache.overall_hits::total         8877297                       # number of overall hits
system.cpu.icache.overall_miss_latency::.switch_cpus.inst     54408500                       # number of overall miss cycles
system.cpu.icache.overall_miss_latency::total     54408500                       # number of overall miss cycles
system.cpu.icache.overall_miss_rate::.cpu.inst     0.100000                       # miss rate for overall accesses
system.cpu.icache.overall_miss_rate::.switch_cpus.inst     0.000095                       # miss rate for overall accesses
system.cpu.icache.overall_miss_rate::total     0.000095                       # miss rate for overall accesses
system.cpu.icache.overall_misses::.cpu.inst            2                       # number of overall misses
system.cpu.icache.overall_misses::.switch_cpus.inst          845                       # number of overall misses
system.cpu.icache.overall_misses::total           847                       # number of overall misses
system.cpu.icache.overall_mshr_hits::.switch_cpus.inst          180                       # number of overall MSHR hits
system.cpu.icache.overall_mshr_hits::total          180                       # number of overall MSHR hits
system.cpu.icache.overall_mshr_miss_latency::.switch_cpus.inst     42565500                       # number of overall MSHR miss cycles
system.cpu.icache.overall_mshr_miss_latency::total     42565500                       # number of overall MSHR miss cycles
system.cpu.icache.overall_mshr_miss_rate::.switch_cpus.inst     0.000075                       # mshr miss rate for overall accesses
system.cpu.icache.overall_mshr_miss_rate::total     0.000075                       # mshr miss rate for overall accesses
system.cpu.icache.overall_mshr_misses::.switch_cpus.inst          665                       # number of overall MSHR misses
system.cpu.icache.overall_mshr_misses::total          665                       # number of overall MSHR misses
system.cpu.icache.pwrStateResidencyTicks::UNDEFINED 940672306000                       # Cumulative time (in ticks) in various power states
system.cpu.icache.replacements                    297                       # number of replacements
system.cpu.icache.tags.age_task_id_blocks_1024::3           51                       # Occupied blocks per task id
system.cpu.icache.tags.age_task_id_blocks_1024::4          319                       # Occupied blocks per task id
system.cpu.icache.tags.avg_refs          13310.290855                       # Average number of references to valid blocks.
system.cpu.icache.tags.data_accesses         71025819                       # Number of data accesses
system.cpu.icache.tags.occ_blocks::.cpu.inst     1.169541                       # Average occupied blocks per requestor
system.cpu.icache.tags.occ_blocks::.switch_cpus.inst   306.955657                       # Average occupied blocks per requestor
system.cpu.icache.tags.occ_percent::.cpu.inst     0.002284                       # Average percentage of cache occupancy
system.cpu.icache.tags.occ_percent::.switch_cpus.inst     0.599523                       # Average percentage of cache occupancy
system.cpu.icache.tags.occ_percent::total     0.601807                       # Average percentage of cache occupancy
system.cpu.icache.tags.occ_task_id_blocks::1024          370                       # Occupied blocks per task id
system.cpu.icache.tags.occ_task_id_percent::1024     0.722656                       # Percentage of cache occupancy per task id
system.cpu.icache.tags.pwrStateResidencyTicks::UNDEFINED 940672306000                       # Cumulative time (in ticks) in various power states
system.cpu.icache.tags.sampled_refs               667                       # Sample count of references to valid blocks.
system.cpu.icache.tags.tag_accesses          71025819                       # Number of tag accesses
system.cpu.icache.tags.tagsinuse           308.125198                       # Cycle average of tags in use
system.cpu.icache.tags.total_refs             8877964                       # Total number of references to valid blocks.
system.cpu.icache.tags.warmup_cycle      924943363500                       # Cycle when the warmup percentage was hit.
system.cpu.icache.writebacks::.writebacks          297                       # number of writebacks
system.cpu.icache.writebacks::total               297                       # number of writebacks
system.cpu.idle_fraction                            0                       # Percentage of idle cycles
system.cpu.itb.data_accesses                        0                       # DTB accesses
system.cpu.itb.data_acv                             0                       # DTB access violations
system.cpu.itb.data_hits                            0                       # DTB hits
system.cpu.itb.data_misses                          0                       # DTB misses
system.cpu.itb.fetch_accesses                      20                       # ITB accesses
system.cpu.itb.fetch_acv                            0                       # ITB acv
system.cpu.itb.fetch_hits                          20                       # ITB hits
system.cpu.itb.fetch_misses                         0                       # ITB misses
system.cpu.itb.pwrStateResidencyTicks::UNDEFINED 940672306000                       # Cumulative time (in ticks) in various power states
system.cpu.itb.read_accesses                        0                       # DTB read accesses
system.cpu.itb.read_acv                             0                       # DTB read access violations
system.cpu.itb.read_hits                            0                       # DTB read hits
system.cpu.itb.read_misses                          0                       # DTB read misses
system.cpu.itb.write_accesses                       0                       # DTB write accesses
system.cpu.itb.write_acv                            0                       # DTB write access violations
system.cpu.itb.write_hits                           0                       # DTB write hits
system.cpu.itb.write_misses                         0                       # DTB write misses
system.cpu.not_idle_fraction                        1                       # Percentage of non-idle cycles
system.cpu.numCycles                               20                       # number of cpu cycles simulated
system.cpu.numPwrStateTransitions                   1                       # Number of power state transitions
system.cpu.numWorkItemsCompleted                    0                       # number of work items this cpu completed
system.cpu.numWorkItemsStarted                      0                       # number of work items this cpu started
system.cpu.num_busy_cycles                         20                       # Number of busy cycles
system.cpu.num_conditional_control_insts            1                       # number of instructions that are conditional controls
system.cpu.num_fp_alu_accesses                      0                       # Number of float alu accesses
system.cpu.num_fp_insts                             0                       # number of float instructions
system.cpu.num_fp_register_reads                    0                       # number of times the floating registers were read
system.cpu.num_fp_register_writes                   0                       # number of times the floating registers were written
system.cpu.num_func_calls                           0                       # number of times a function call or return occured
system.cpu.num_idle_cycles                          0                       # Number of idle cycles
system.cpu.num_int_alu_accesses                    20                       # Number of integer alu accesses
system.cpu.num_int_insts                           20                       # number of integer instructions
system.cpu.num_int_register_reads                  31                       # number of times the integer registers were read
system.cpu.num_int_register_writes                 15                       # number of times the integer registers were written
system.cpu.num_load_insts                           4                       # Number of load instructions
system.cpu.num_mem_refs                             8                       # number of memory refs
system.cpu.num_store_insts                          4                       # Number of store instructions
system.cpu.num_vec_alu_accesses                     0                       # Number of vector alu accesses
system.cpu.num_vec_insts                            0                       # number of vector instructions
system.cpu.num_vec_register_reads                   0                       # number of times the vector registers were read
system.cpu.num_vec_register_writes                  0                       # number of times the vector registers were written
system.cpu.op_class::No_OpClass                     0      0.00%      0.00% # Class of executed instruction
system.cpu.op_class::IntAlu                        12     60.00%     60.00% # Class of executed instruction
system.cpu.op_class::IntMult                        0      0.00%     60.00% # Class of executed instruction
system.cpu.op_class::IntDiv                         0      0.00%     60.00% # Class of executed instruction
system.cpu.op_class::FloatAdd                       0      0.00%     60.00% # Class of executed instruction
system.cpu.op_class::FloatCmp                       0      0.00%     60.00% # Class of executed instruction
system.cpu.op_class::FloatCvt                       0      0.00%     60.00% # Class of executed instruction
system.cpu.op_class::FloatMult                      0      0.00%     60.00% # Class of executed instruction
system.cpu.op_class::FloatMultAcc                   0      0.00%     60.00% # Class of executed instruction
system.cpu.op_class::FloatDiv                       0      0.00%     60.00% # Class of executed instruction
system.cpu.op_class::FloatMisc                      0      0.00%     60.00% # Class of executed instruction
system.cpu.op_class::FloatSqrt                      0      0.00%     60.00% # Class of executed instruction
system.cpu.op_class::SimdAdd                        0      0.00%     60.00% # Class of executed instruction
system.cpu.op_class::SimdAddAcc                     0      0.00%     60.00% # Class of executed instruction
system.cpu.op_class::SimdAlu                        0      0.00%     60.00% # Class of executed instruction
system.cpu.op_class::SimdCmp                        0      0.00%     60.00% # Class of executed instruction
system.cpu.op_class::SimdCvt                        0      0.00%     60.00% # Class of executed instruction
system.cpu.op_class::SimdMisc                       0      0.00%     60.00% # Class of executed instruction
system.cpu.op_class::SimdMult                       0      0.00%     60.00% # Class of executed instruction
system.cpu.op_class::SimdMultAcc                    0      0.00%     60.00% # Class of executed instruction
system.cpu.op_class::SimdShift                      0      0.00%     60.00% # Class of executed instruction
system.cpu.op_class::SimdShiftAcc                   0      0.00%     60.00% # Class of executed instruction
system.cpu.op_class::SimdSqrt                       0      0.00%     60.00% # Class of executed instruction
system.cpu.op_class::SimdFloatAdd                   0      0.00%     60.00% # Class of executed instruction
system.cpu.op_class::SimdFloatAlu                   0      0.00%     60.00% # Class of executed instruction
system.cpu.op_class::SimdFloatCmp                   0      0.00%     60.00% # Class of executed instruction
system.cpu.op_class::SimdFloatCvt                   0      0.00%     60.00% # Class of executed instruction
system.cpu.op_class::SimdFloatDiv                   0      0.00%     60.00% # Class of executed instruction
system.cpu.op_class::SimdFloatMisc                  0      0.00%     60.00% # Class of executed instruction
system.cpu.op_class::SimdFloatMult                  0      0.00%     60.00% # Class of executed instruction
system.cpu.op_class::SimdFloatMultAcc               0      0.00%     60.00% # Class of executed instruction
system.cpu.op_class::SimdFloatSqrt                  0      0.00%     60.00% # Class of executed instruction
system.cpu.op_class::SimdAes                        0      0.00%     60.00% # Class of executed instruction
system.cpu.op_class::SimdAesMix                     0      0.00%     60.00% # Class of executed instruction
system.cpu.op_class::SimdSha1Hash                   0      0.00%     60.00% # Class of executed instruction
system.cpu.op_class::SimdSha1Hash2                  0      0.00%     60.00% # Class of executed instruction
system.cpu.op_class::SimdSha256Hash                 0      0.00%     60.00% # Class of executed instruction
system.cpu.op_class::SimdSha256Hash2                0      0.00%     60.00% # Class of executed instruction
system.cpu.op_class::SimdShaSigma2                  0      0.00%     60.00% # Class of executed instruction
system.cpu.op_class::SimdShaSigma3                  0      0.00%     60.00% # Class of executed instruction
system.cpu.op_class::MemRead                        4     20.00%     80.00% # Class of executed instruction
system.cpu.op_class::MemWrite                       4     20.00%    100.00% # Class of executed instruction
system.cpu.op_class::FloatMemRead                   0      0.00%    100.00% # Class of executed instruction
system.cpu.op_class::FloatMemWrite                  0      0.00%    100.00% # Class of executed instruction
system.cpu.op_class::IprAccess                      0      0.00%    100.00% # Class of executed instruction
system.cpu.op_class::InstPrefetch                   0      0.00%    100.00% # Class of executed instruction
system.cpu.op_class::total                         20                       # Class of executed instruction
system.cpu.pwrStateResidencyTicks::ON           10000                       # Cumulative time (in ticks) in various power states
system.cpu.pwrStateResidencyTicks::OFF    15728933000                       # Cumulative time (in ticks) in various power states
system.cpu.workload.numSyscalls                     0                       # Number of system calls
system.cpu_clk_domain.clock                       500                       # Clock period in ticks
system.cpu_voltage_domain.voltage                   1                       # Voltage in Volts
system.l2.CleanEvict_mshr_miss_rate::.writebacks          inf                       # mshr miss rate for CleanEvict accesses
system.l2.CleanEvict_mshr_miss_rate::total          inf                       # mshr miss rate for CleanEvict accesses
system.l2.CleanEvict_mshr_misses::.writebacks           47                       # number of CleanEvict MSHR misses
system.l2.CleanEvict_mshr_misses::total            47                       # number of CleanEvict MSHR misses
system.l2.InvalidateReq_accesses::.switch_cpus.data            2                       # number of InvalidateReq accesses(hits+misses)
system.l2.InvalidateReq_accesses::total             2                       # number of InvalidateReq accesses(hits+misses)
system.l2.InvalidateReq_hits::.switch_cpus.data            2                       # number of InvalidateReq hits
system.l2.InvalidateReq_hits::total                 2                       # number of InvalidateReq hits
system.l2.ReadCleanReq_accesses::.cpu.inst            2                       # number of ReadCleanReq accesses(hits+misses)
system.l2.ReadCleanReq_accesses::.switch_cpus.inst          665                       # number of ReadCleanReq accesses(hits+misses)
system.l2.ReadCleanReq_accesses::total            667                       # number of ReadCleanReq accesses(hits+misses)
system.l2.ReadCleanReq_avg_miss_latency::.switch_cpus.inst 91396.955504                       # average ReadCleanReq miss latency
system.l2.ReadCleanReq_avg_miss_latency::total 90970.862471                       # average ReadCleanReq miss latency
system.l2.ReadCleanReq_avg_mshr_miss_latency::.switch_cpus.inst 81396.955504                       # average ReadCleanReq mshr miss latency
system.l2.ReadCleanReq_avg_mshr_miss_latency::total 81396.955504                       # average ReadCleanReq mshr miss latency
system.l2.ReadCleanReq_hits::.switch_cpus.inst          238                       # number of ReadCleanReq hits
system.l2.ReadCleanReq_hits::total                238                       # number of ReadCleanReq hits
system.l2.ReadCleanReq_miss_latency::.switch_cpus.inst     39026500                       # number of ReadCleanReq miss cycles
system.l2.ReadCleanReq_miss_latency::total     39026500                       # number of ReadCleanReq miss cycles
system.l2.ReadCleanReq_miss_rate::.cpu.inst            1                       # miss rate for ReadCleanReq accesses
system.l2.ReadCleanReq_miss_rate::.switch_cpus.inst     0.642105                       # miss rate for ReadCleanReq accesses
system.l2.ReadCleanReq_miss_rate::total      0.643178                       # miss rate for ReadCleanReq accesses
system.l2.ReadCleanReq_misses::.cpu.inst            2                       # number of ReadCleanReq misses
system.l2.ReadCleanReq_misses::.switch_cpus.inst          427                       # number of ReadCleanReq misses
system.l2.ReadCleanReq_misses::total              429                       # number of ReadCleanReq misses
system.l2.ReadCleanReq_mshr_miss_latency::.switch_cpus.inst     34756500                       # number of ReadCleanReq MSHR miss cycles
system.l2.ReadCleanReq_mshr_miss_latency::total     34756500                       # number of ReadCleanReq MSHR miss cycles
system.l2.ReadCleanReq_mshr_miss_rate::.switch_cpus.inst     0.642105                       # mshr miss rate for ReadCleanReq accesses
system.l2.ReadCleanReq_mshr_miss_rate::total     0.640180                       # mshr miss rate for ReadCleanReq accesses
system.l2.ReadCleanReq_mshr_misses::.switch_cpus.inst          427                       # number of ReadCleanReq MSHR misses
system.l2.ReadCleanReq_mshr_misses::total          427                       # number of ReadCleanReq MSHR misses
system.l2.ReadExReq_accesses::.cpu.data             1                       # number of ReadExReq accesses(hits+misses)
system.l2.ReadExReq_accesses::.switch_cpus.data       207629                       # number of ReadExReq accesses(hits+misses)
system.l2.ReadExReq_accesses::total            207630                       # number of ReadExReq accesses(hits+misses)
system.l2.ReadExReq_avg_miss_latency::.switch_cpus.data 88453.134304                       # average ReadExReq miss latency
system.l2.ReadExReq_avg_miss_latency::total 88452.226226                       # average ReadExReq miss latency
system.l2.ReadExReq_avg_mshr_miss_latency::.switch_cpus.data 78453.134304                       # average ReadExReq mshr miss latency
system.l2.ReadExReq_avg_mshr_miss_latency::total 78453.134304                       # average ReadExReq mshr miss latency
system.l2.ReadExReq_hits::.switch_cpus.data       110223                       # number of ReadExReq hits
system.l2.ReadExReq_hits::total                110223                       # number of ReadExReq hits
system.l2.ReadExReq_miss_latency::.switch_cpus.data   8615866000                       # number of ReadExReq miss cycles
system.l2.ReadExReq_miss_latency::total    8615866000                       # number of ReadExReq miss cycles
system.l2.ReadExReq_miss_rate::.cpu.data            1                       # miss rate for ReadExReq accesses
system.l2.ReadExReq_miss_rate::.switch_cpus.data     0.469135                       # miss rate for ReadExReq accesses
system.l2.ReadExReq_miss_rate::total         0.469137                       # miss rate for ReadExReq accesses
system.l2.ReadExReq_misses::.cpu.data               1                       # number of ReadExReq misses
system.l2.ReadExReq_misses::.switch_cpus.data        97406                       # number of ReadExReq misses
system.l2.ReadExReq_misses::total               97407                       # number of ReadExReq misses
system.l2.ReadExReq_mshr_miss_latency::.switch_cpus.data   7641806000                       # number of ReadExReq MSHR miss cycles
system.l2.ReadExReq_mshr_miss_latency::total   7641806000                       # number of ReadExReq MSHR miss cycles
system.l2.ReadExReq_mshr_miss_rate::.switch_cpus.data     0.469135                       # mshr miss rate for ReadExReq accesses
system.l2.ReadExReq_mshr_miss_rate::total     0.469133                       # mshr miss rate for ReadExReq accesses
system.l2.ReadExReq_mshr_misses::.switch_cpus.data        97406                       # number of ReadExReq MSHR misses
system.l2.ReadExReq_mshr_misses::total          97406                       # number of ReadExReq MSHR misses
system.l2.ReadSharedReq_accesses::.cpu.data            4                       # number of ReadSharedReq accesses(hits+misses)
system.l2.ReadSharedReq_accesses::.switch_cpus.data       150987                       # number of ReadSharedReq accesses(hits+misses)
system.l2.ReadSharedReq_accesses::total        150991                       # number of ReadSharedReq accesses(hits+misses)
system.l2.ReadSharedReq_avg_miss_latency::.switch_cpus.data 114833.131802                       # average ReadSharedReq miss latency
system.l2.ReadSharedReq_avg_miss_latency::total 114648.289738                       # average ReadSharedReq miss latency
system.l2.ReadSharedReq_avg_mshr_miss_latency::.switch_cpus.data 104833.131802                       # average ReadSharedReq mshr miss latency
system.l2.ReadSharedReq_avg_mshr_miss_latency::total 104833.131802                       # average ReadSharedReq mshr miss latency
system.l2.ReadSharedReq_hits::.switch_cpus.data       148506                       # number of ReadSharedReq hits
system.l2.ReadSharedReq_hits::total            148506                       # number of ReadSharedReq hits
system.l2.ReadSharedReq_miss_latency::.switch_cpus.data    284901000                       # number of ReadSharedReq miss cycles
system.l2.ReadSharedReq_miss_latency::total    284901000                       # number of ReadSharedReq miss cycles
system.l2.ReadSharedReq_miss_rate::.cpu.data            1                       # miss rate for ReadSharedReq accesses
system.l2.ReadSharedReq_miss_rate::.switch_cpus.data     0.016432                       # miss rate for ReadSharedReq accesses
system.l2.ReadSharedReq_miss_rate::total     0.016458                       # miss rate for ReadSharedReq accesses
system.l2.ReadSharedReq_misses::.cpu.data            4                       # number of ReadSharedReq misses
system.l2.ReadSharedReq_misses::.switch_cpus.data         2481                       # number of ReadSharedReq misses
system.l2.ReadSharedReq_misses::total            2485                       # number of ReadSharedReq misses
system.l2.ReadSharedReq_mshr_miss_latency::.switch_cpus.data    260091000                       # number of ReadSharedReq MSHR miss cycles
system.l2.ReadSharedReq_mshr_miss_latency::total    260091000                       # number of ReadSharedReq MSHR miss cycles
system.l2.ReadSharedReq_mshr_miss_rate::.switch_cpus.data     0.016432                       # mshr miss rate for ReadSharedReq accesses
system.l2.ReadSharedReq_mshr_miss_rate::total     0.016431                       # mshr miss rate for ReadSharedReq accesses
system.l2.ReadSharedReq_mshr_misses::.switch_cpus.data         2481                       # number of ReadSharedReq MSHR misses
system.l2.ReadSharedReq_mshr_misses::total         2481                       # number of ReadSharedReq MSHR misses
system.l2.WritebackClean_accesses::.writebacks          297                       # number of WritebackClean accesses(hits+misses)
system.l2.WritebackClean_accesses::total          297                       # number of WritebackClean accesses(hits+misses)
system.l2.WritebackClean_hits::.writebacks          297                       # number of WritebackClean hits
system.l2.WritebackClean_hits::total              297                       # number of WritebackClean hits
system.l2.WritebackDirty_accesses::.writebacks       211804                       # number of WritebackDirty accesses(hits+misses)
system.l2.WritebackDirty_accesses::total       211804                       # number of WritebackDirty accesses(hits+misses)
system.l2.WritebackDirty_hits::.writebacks       211804                       # number of WritebackDirty hits
system.l2.WritebackDirty_hits::total           211804                       # number of WritebackDirty hits
system.l2.avg_blocked_cycles::no_mshrs            nan                       # average number of cycles each access was blocked
system.l2.avg_blocked_cycles::no_targets          nan                       # average number of cycles each access was blocked
system.l2.blocked::no_mshrs                         0                       # number of cycles access was blocked
system.l2.blocked::no_targets                       0                       # number of cycles access was blocked
system.l2.blocked_cycles::no_mshrs                  0                       # number of cycles access was blocked
system.l2.blocked_cycles::no_targets                0                       # number of cycles access was blocked
system.l2.demand_accesses::.cpu.inst                2                       # number of demand (read+write) accesses
system.l2.demand_accesses::.cpu.data                5                       # number of demand (read+write) accesses
system.l2.demand_accesses::.switch_cpus.inst          665                       # number of demand (read+write) accesses
system.l2.demand_accesses::.switch_cpus.data       358616                       # number of demand (read+write) accesses
system.l2.demand_accesses::total               359288                       # number of demand (read+write) accesses
system.l2.demand_avg_miss_latency::.switch_cpus.inst 91396.955504                       # average overall miss latency
system.l2.demand_avg_miss_latency::.switch_cpus.data 89108.362450                       # average overall miss latency
system.l2.demand_avg_miss_latency::total 89111.885846                       # average overall miss latency
system.l2.demand_avg_mshr_miss_latency::.switch_cpus.inst 81396.955504                       # average overall mshr miss latency
system.l2.demand_avg_mshr_miss_latency::.switch_cpus.data 79108.362450                       # average overall mshr miss latency
system.l2.demand_avg_mshr_miss_latency::total 79118.104153                       # average overall mshr miss latency
system.l2.demand_hits::.switch_cpus.inst          238                       # number of demand (read+write) hits
system.l2.demand_hits::.switch_cpus.data       258729                       # number of demand (read+write) hits
system.l2.demand_hits::total                   258967                       # number of demand (read+write) hits
system.l2.demand_miss_latency::.switch_cpus.inst     39026500                       # number of demand (read+write) miss cycles
system.l2.demand_miss_latency::.switch_cpus.data   8900767000                       # number of demand (read+write) miss cycles
system.l2.demand_miss_latency::total       8939793500                       # number of demand (read+write) miss cycles
system.l2.demand_miss_rate::.cpu.inst               1                       # miss rate for demand accesses
system.l2.demand_miss_rate::.cpu.data               1                       # miss rate for demand accesses
system.l2.demand_miss_rate::.switch_cpus.inst     0.642105                       # miss rate for demand accesses
system.l2.demand_miss_rate::.switch_cpus.data     0.278535                       # miss rate for demand accesses
system.l2.demand_miss_rate::total            0.279222                       # miss rate for demand accesses
system.l2.demand_misses::.cpu.inst                  2                       # number of demand (read+write) misses
system.l2.demand_misses::.cpu.data                  5                       # number of demand (read+write) misses
system.l2.demand_misses::.switch_cpus.inst          427                       # number of demand (read+write) misses
system.l2.demand_misses::.switch_cpus.data        99887                       # number of demand (read+write) misses
system.l2.demand_misses::total                 100321                       # number of demand (read+write) misses
system.l2.demand_mshr_miss_latency::.switch_cpus.inst     34756500                       # number of demand (read+write) MSHR miss cycles
system.l2.demand_mshr_miss_latency::.switch_cpus.data   7901897000                       # number of demand (read+write) MSHR miss cycles
system.l2.demand_mshr_miss_latency::total   7936653500                       # number of demand (read+write) MSHR miss cycles
system.l2.demand_mshr_miss_rate::.switch_cpus.inst     0.642105                       # mshr miss rate for demand accesses
system.l2.demand_mshr_miss_rate::.switch_cpus.data     0.278535                       # mshr miss rate for demand accesses
system.l2.demand_mshr_miss_rate::total       0.279202                       # mshr miss rate for demand accesses
system.l2.demand_mshr_misses::.switch_cpus.inst          427                       # number of demand (read+write) MSHR misses
system.l2.demand_mshr_misses::.switch_cpus.data        99887                       # number of demand (read+write) MSHR misses
system.l2.demand_mshr_misses::total            100314                       # number of demand (read+write) MSHR misses
system.l2.overall_accesses::.cpu.inst               2                       # number of overall (read+write) accesses
system.l2.overall_accesses::.cpu.data               5                       # number of overall (read+write) accesses
system.l2.overall_accesses::.switch_cpus.inst          665                       # number of overall (read+write) accesses
system.l2.overall_accesses::.switch_cpus.data       358616                       # number of overall (read+write) accesses
system.l2.overall_accesses::total              359288                       # number of overall (read+write) accesses
system.l2.overall_avg_miss_latency::.switch_cpus.inst 91396.955504                       # average overall miss latency
system.l2.overall_avg_miss_latency::.switch_cpus.data 89108.362450                       # average overall miss latency
system.l2.overall_avg_miss_latency::total 89111.885846                       # average overall miss latency
system.l2.overall_avg_mshr_miss_latency::.switch_cpus.inst 81396.955504                       # average overall mshr miss latency
system.l2.overall_avg_mshr_miss_latency::.switch_cpus.data 79108.362450                       # average overall mshr miss latency
system.l2.overall_avg_mshr_miss_latency::total 79118.104153                       # average overall mshr miss latency
system.l2.overall_hits::.switch_cpus.inst          238                       # number of overall hits
system.l2.overall_hits::.switch_cpus.data       258729                       # number of overall hits
system.l2.overall_hits::total                  258967                       # number of overall hits
system.l2.overall_miss_latency::.switch_cpus.inst     39026500                       # number of overall miss cycles
system.l2.overall_miss_latency::.switch_cpus.data   8900767000                       # number of overall miss cycles
system.l2.overall_miss_latency::total      8939793500                       # number of overall miss cycles
system.l2.overall_miss_rate::.cpu.inst              1                       # miss rate for overall accesses
system.l2.overall_miss_rate::.cpu.data              1                       # miss rate for overall accesses
system.l2.overall_miss_rate::.switch_cpus.inst     0.642105                       # miss rate for overall accesses
system.l2.overall_miss_rate::.switch_cpus.data     0.278535                       # miss rate for overall accesses
system.l2.overall_miss_rate::total           0.279222                       # miss rate for overall accesses
system.l2.overall_misses::.cpu.inst                 2                       # number of overall misses
system.l2.overall_misses::.cpu.data                 5                       # number of overall misses
system.l2.overall_misses::.switch_cpus.inst          427                       # number of overall misses
system.l2.overall_misses::.switch_cpus.data        99887                       # number of overall misses
system.l2.overall_misses::total                100321                       # number of overall misses
system.l2.overall_mshr_miss_latency::.switch_cpus.inst     34756500                       # number of overall MSHR miss cycles
system.l2.overall_mshr_miss_latency::.switch_cpus.data   7901897000                       # number of overall MSHR miss cycles
system.l2.overall_mshr_miss_latency::total   7936653500                       # number of overall MSHR miss cycles
system.l2.overall_mshr_miss_rate::.switch_cpus.inst     0.642105                       # mshr miss rate for overall accesses
system.l2.overall_mshr_miss_rate::.switch_cpus.data     0.278535                       # mshr miss rate for overall accesses
system.l2.overall_mshr_miss_rate::total      0.279202                       # mshr miss rate for overall accesses
system.l2.overall_mshr_misses::.switch_cpus.inst          427                       # number of overall MSHR misses
system.l2.overall_mshr_misses::.switch_cpus.data        99887                       # number of overall MSHR misses
system.l2.overall_mshr_misses::total           100314                       # number of overall MSHR misses
system.l2.pwrStateResidencyTicks::UNDEFINED 940672306000                       # Cumulative time (in ticks) in various power states
system.l2.replacements                          67622                       # number of replacements
system.l2.tags.age_task_id_blocks_1024::0          114                       # Occupied blocks per task id
system.l2.tags.age_task_id_blocks_1024::1          794                       # Occupied blocks per task id
system.l2.tags.age_task_id_blocks_1024::2         7191                       # Occupied blocks per task id
system.l2.tags.age_task_id_blocks_1024::3        15594                       # Occupied blocks per task id
system.l2.tags.age_task_id_blocks_1024::4         9075                       # Occupied blocks per task id
system.l2.tags.avg_refs                      7.148488                       # Average number of references to valid blocks.
system.l2.tags.data_accesses                 11583560                       # Number of data accesses
system.l2.tags.occ_blocks::.writebacks      11.009265                       # Average occupied blocks per requestor
system.l2.tags.occ_blocks::.cpu.inst         0.847254                       # Average occupied blocks per requestor
system.l2.tags.occ_blocks::.cpu.data         2.609801                       # Average occupied blocks per requestor
system.l2.tags.occ_blocks::.switch_cpus.inst   186.720730                       # Average occupied blocks per requestor
system.l2.tags.occ_blocks::.switch_cpus.data 29708.570742                       # Average occupied blocks per requestor
system.l2.tags.occ_percent::.writebacks      0.000336                       # Average percentage of cache occupancy
system.l2.tags.occ_percent::.cpu.inst        0.000026                       # Average percentage of cache occupancy
system.l2.tags.occ_percent::.cpu.data        0.000080                       # Average percentage of cache occupancy
system.l2.tags.occ_percent::.switch_cpus.inst     0.005698                       # Average percentage of cache occupancy
system.l2.tags.occ_percent::.switch_cpus.data     0.906634                       # Average percentage of cache occupancy
system.l2.tags.occ_percent::total            0.912773                       # Average percentage of cache occupancy
system.l2.tags.occ_task_id_blocks::1024         32768                       # Occupied blocks per task id
system.l2.tags.occ_task_id_percent::1024            1                       # Percentage of cache occupancy per task id
system.l2.tags.pwrStateResidencyTicks::UNDEFINED 940672306000                       # Cumulative time (in ticks) in various power states
system.l2.tags.sampled_refs                    100392                       # Sample count of references to valid blocks.
system.l2.tags.tag_accesses                  11583560                       # Number of tag accesses
system.l2.tags.tagsinuse                 29909.757792                       # Cycle average of tags in use
system.l2.tags.total_refs                      717651                       # Total number of references to valid blocks.
system.l2.tags.warmup_cycle              924943363500                       # Cycle when the warmup percentage was hit.
system.l2.writebacks::.writebacks               65980                       # number of writebacks
system.l2.writebacks::total                     65980                       # number of writebacks
system.mem_ctrls.avgBusLat                    5000.00                       # Average bus latency per DRAM burst
system.mem_ctrls.avgGap                      94581.79                       # Average gap between requests
system.mem_ctrls.avgMemAccLat                37971.15                       # Average memory access latency per DRAM burst
system.mem_ctrls.avgPriority_.writebacks::samples     65980.00                       # Average QoS priority value for accepted requests
system.mem_ctrls.avgPriority_.switch_cpus.inst::samples       427.00                       # Average QoS priority value for accepted requests
system.mem_ctrls.avgPriority_.switch_cpus.data::samples     99822.00                       # Average QoS priority value for accepted requests
system.mem_ctrls.avgQLat                     19221.15                       # Average queueing delay per DRAM burst
system.mem_ctrls.avgRdBW                       407.91                       # Average DRAM read bandwidth in MiByte/s
system.mem_ctrls.avgRdBWSys                    408.17                       # Average system read bandwidth in MiByte/s
system.mem_ctrls.avgRdQLen                       1.91                       # Average read queue length when enqueuing
system.mem_ctrls.avgWrBW                       268.36                       # Average achieved write bandwidth in MiByte/s
system.mem_ctrls.avgWrBWSys                    268.47                       # Average system write bandwidth in MiByte/s
system.mem_ctrls.avgWrQLen                      21.09                       # Average write queue length when enqueuing
system.mem_ctrls.busUtil                         5.28                       # Data bus utilization in percentage
system.mem_ctrls.busUtilRead                     3.19                       # Data bus utilization in percentage for reads
system.mem_ctrls.busUtilWrite                    2.10                       # Data bus utilization in percentage for writes
system.mem_ctrls.bw_inst_read::.cpu.inst         8138                       # Instruction read bandwidth from this memory (bytes/s)
system.mem_ctrls.bw_inst_read::.switch_cpus.inst      1737434                       # Instruction read bandwidth from this memory (bytes/s)
system.mem_ctrls.bw_inst_read::total          1745572                       # Instruction read bandwidth from this memory (bytes/s)
system.mem_ctrls.bw_read::.cpu.inst              8138                       # Total read bandwidth from this memory (bytes/s)
system.mem_ctrls.bw_read::.cpu.data             20345                       # Total read bandwidth from this memory (bytes/s)
system.mem_ctrls.bw_read::.switch_cpus.inst      1737434                       # Total read bandwidth from this memory (bytes/s)
system.mem_ctrls.bw_read::.switch_cpus.data    406433414                       # Total read bandwidth from this memory (bytes/s)
system.mem_ctrls.bw_read::total             408199330                       # Total read bandwidth from this memory (bytes/s)
system.mem_ctrls.bw_total::.writebacks      268468135                       # Total bandwidth to/from this memory (bytes/s)
system.mem_ctrls.bw_total::.cpu.inst             8138                       # Total bandwidth to/from this memory (bytes/s)
system.mem_ctrls.bw_total::.cpu.data            20345                       # Total bandwidth to/from this memory (bytes/s)
system.mem_ctrls.bw_total::.switch_cpus.inst      1737434                       # Total bandwidth to/from this memory (bytes/s)
system.mem_ctrls.bw_total::.switch_cpus.data    406433414                       # Total bandwidth to/from this memory (bytes/s)
system.mem_ctrls.bw_total::total            676667466                       # Total bandwidth to/from this memory (bytes/s)
system.mem_ctrls.bw_write::.writebacks      268468135                       # Write bandwidth from this memory (bytes/s)
system.mem_ctrls.bw_write::total            268468135                       # Write bandwidth from this memory (bytes/s)
system.mem_ctrls.bytesPerActivate::samples        25931                       # Bytes accessed per row activation
system.mem_ctrls.bytesPerActivate::mean    410.154333                       # Bytes accessed per row activation
system.mem_ctrls.bytesPerActivate::gmean   281.520185                       # Bytes accessed per row activation
system.mem_ctrls.bytesPerActivate::stdev   312.696834                       # Bytes accessed per row activation
system.mem_ctrls.bytesPerActivate::0-127         5374     20.72%     20.72% # Bytes accessed per row activation
system.mem_ctrls.bytesPerActivate::128-255         3935     15.17%     35.90% # Bytes accessed per row activation
system.mem_ctrls.bytesPerActivate::256-383         3080     11.88%     47.78% # Bytes accessed per row activation
system.mem_ctrls.bytesPerActivate::384-511         4997     19.27%     67.05% # Bytes accessed per row activation
system.mem_ctrls.bytesPerActivate::512-639         2061      7.95%     75.00% # Bytes accessed per row activation
system.mem_ctrls.bytesPerActivate::640-767         1209      4.66%     79.66% # Bytes accessed per row activation
system.mem_ctrls.bytesPerActivate::768-895         1800      6.94%     86.60% # Bytes accessed per row activation
system.mem_ctrls.bytesPerActivate::896-1023         1086      4.19%     90.79% # Bytes accessed per row activation
system.mem_ctrls.bytesPerActivate::1024-1151         2389      9.21%    100.00% # Bytes accessed per row activation
system.mem_ctrls.bytesPerActivate::total        25931                       # Bytes accessed per row activation
system.mem_ctrls.bytesReadDRAM                6415936                       # Total number of bytes read from DRAM
system.mem_ctrls.bytesReadSys                 6420096                       # Total read bytes from the system interface side
system.mem_ctrls.bytesReadWrQ                    4160                       # Total number of bytes read from write queue
system.mem_ctrls.bytesWritten                 4220992                       # Total number of bytes written to DRAM
system.mem_ctrls.bytesWrittenSys              4222720                       # Total written bytes from the system interface side
system.mem_ctrls.bytes_inst_read::.cpu.inst          128                       # Number of instructions bytes read from this memory
system.mem_ctrls.bytes_inst_read::.switch_cpus.inst        27328                       # Number of instructions bytes read from this memory
system.mem_ctrls.bytes_inst_read::total         27456                       # Number of instructions bytes read from this memory
system.mem_ctrls.bytes_read::.cpu.inst            128                       # Number of bytes read from this memory
system.mem_ctrls.bytes_read::.cpu.data            320                       # Number of bytes read from this memory
system.mem_ctrls.bytes_read::.switch_cpus.inst        27328                       # Number of bytes read from this memory
system.mem_ctrls.bytes_read::.switch_cpus.data      6392768                       # Number of bytes read from this memory
system.mem_ctrls.bytes_read::total            6420544                       # Number of bytes read from this memory
system.mem_ctrls.bytes_written::.writebacks      4222720                       # Number of bytes written to this memory
system.mem_ctrls.bytes_written::total         4222720                       # Number of bytes written to this memory
system.mem_ctrls.masterReadAccesses::.switch_cpus.inst          427                       # Per-master read serviced memory accesses
system.mem_ctrls.masterReadAccesses::.switch_cpus.data        99887                       # Per-master read serviced memory accesses
system.mem_ctrls.masterReadAvgLat::.switch_cpus.inst     40199.65                       # Per-master read average memory access latency
system.mem_ctrls.masterReadAvgLat::.switch_cpus.data     37936.91                       # Per-master read average memory access latency
system.mem_ctrls.masterReadBytes::.switch_cpus.inst        27328                       # Per-master bytes read from memory
system.mem_ctrls.masterReadBytes::.switch_cpus.data      6388608                       # Per-master bytes read from memory
system.mem_ctrls.masterReadRate::.switch_cpus.inst 1737433.977604216663                       # Per-master bytes read from memory rate (Bytes/sec)
system.mem_ctrls.masterReadRate::.switch_cpus.data 406168933.284328162670                       # Per-master bytes read from memory rate (Bytes/sec)
system.mem_ctrls.masterReadTotalLat::.switch_cpus.inst     17165250                       # Per-master read total memory access latency
system.mem_ctrls.masterReadTotalLat::.switch_cpus.data   3789404500                       # Per-master read total memory access latency
system.mem_ctrls.masterWriteAccesses::.writebacks        65980                       # Per-master write serviced memory accesses
system.mem_ctrls.masterWriteAvgLat::.writebacks   4795719.66                       # Per-master write average memory access latency
system.mem_ctrls.masterWriteBytes::.writebacks      4220992                       # Per-master bytes write to memory
system.mem_ctrls.masterWriteRate::.writebacks 268358274.297262072563                       # Per-master bytes write to memory rate (Bytes/sec)
system.mem_ctrls.masterWriteTotalLat::.writebacks 316421583250                       # Per-master write total memory access latency
system.mem_ctrls.mergedWrBursts                     0                       # Number of DRAM write bursts merged with an existing one
system.mem_ctrls.neitherReadNorWriteReqs            0                       # Number of requests that are neither read nor write
system.mem_ctrls.numRdRetry                         0                       # Number of times read queue was full causing retry
system.mem_ctrls.numReadWriteTurnArounds         3615                       # Number of turnarounds from READ to WRITE
system.mem_ctrls.numStayReadState              263217                       # Number of times bus staying in READ state
system.mem_ctrls.numStayWriteState              62581                       # Number of times bus staying in WRITE state
system.mem_ctrls.numWrRetry                         0                       # Number of times write queue was full causing retry
system.mem_ctrls.numWriteReadTurnArounds         3615                       # Number of turnarounds from WRITE to READ
system.mem_ctrls.num_reads::.cpu.inst               2                       # Number of read requests responded to by this memory
system.mem_ctrls.num_reads::.cpu.data               5                       # Number of read requests responded to by this memory
system.mem_ctrls.num_reads::.switch_cpus.inst          427                       # Number of read requests responded to by this memory
system.mem_ctrls.num_reads::.switch_cpus.data        99887                       # Number of read requests responded to by this memory
system.mem_ctrls.num_reads::total              100321                       # Number of read requests responded to by this memory
system.mem_ctrls.num_writes::.writebacks        65980                       # Number of write requests responded to by this memory
system.mem_ctrls.num_writes::total              65980                       # Number of write requests responded to by this memory
system.mem_ctrls.pageHitRate                    84.38                       # Row buffer hit rate, read and write combined
system.mem_ctrls.peakBW                      12800.00                       # Theoretical peak bandwidth in MiByte/s
system.mem_ctrls.perBankRdBursts::0              6062                       # Per bank write bursts
[...]
system.switch_cpus.iq.fu_full::IntDiv               0      0.00%     26.12% # attempts to use FU when none available
system.switch_cpus.iq.fu_full::FloatAdd             0      0.00%     26.12% # attempts to use FU when none available
system.switch_cpus.iq.fu_full::FloatCmp             0      0.00%     26.12% # attempts to use FU when none available
system.switch_cpus.iq.fu_full::FloatCvt             0      0.00%     26.12% # attempts to use FU when none available
system.switch_cpus.iq.fu_full::FloatMult            7      0.00%     26.12% # attempts to use FU when none available
system.switch_cpus.iq.fu_full::FloatMultAcc            0      0.00%     26.12% # attempts to use FU when none available
system.switch_cpus.iq.fu_full::FloatDiv             0      0.00%     26.12% # attempts to use FU when none available
system.switch_cpus.iq.fu_full::FloatMisc            0      0.00%     26.12% # attempts to use FU when none available
system.switch_cpus.iq.fu_full::FloatSqrt            0      0.00%     26.12% # attempts to use FU when none available
system.switch_cpus.iq.fu_full::SimdAdd              0      0.00%     26.12% # attempts to use FU when none available
system.switch_cpus.iq.fu_full::SimdAddAcc            0      0.00%     26.12% # attempts to use FU when none available
system.switch_cpus.iq.fu_full::SimdAlu              0      0.00%     26.12% # attempts to use FU when none available
system.switch_cpus.iq.fu_full::SimdCmp              0      0.00%     26.12% # attempts to use FU when none available
system.switch_cpus.iq.fu_full::SimdCvt              0      0.00%     26.12% # attempts to use FU when none available
system.switch_cpus.iq.fu_full::SimdMisc             0      0.00%     26.12% # attempts to use FU when none available
system.switch_cpus.iq.fu_full::SimdMult             0      0.00%     26.12% # attempts to use FU when none available
system.switch_cpus.iq.fu_full::SimdMultAcc            0      0.00%     26.12% # attempts to use FU when none available
system.switch_cpus.iq.fu_full::SimdShift            0      0.00%     26.12% # attempts to use FU when none available
system.switch_cpus.iq.fu_full::SimdShiftAcc            0      0.00%     26.12% # attempts to use FU when none available
system.switch_cpus.iq.fu_full::SimdSqrt             0      0.00%     26.12% # attempts to use FU when none available
system.switch_cpus.iq.fu_full::SimdFloatAdd            0      0.00%     26.12% # attempts to use FU when none available
system.switch_cpus.iq.fu_full::SimdFloatAlu            0      0.00%     26.12% # attempts to use FU when none available
system.switch_cpus.iq.fu_full::SimdFloatCmp            0      0.00%     26.12% # attempts to use FU when none available
system.switch_cpus.iq.fu_full::SimdFloatCvt            0      0.00%     26.12% # attempts to use FU when none available
system.switch_cpus.iq.fu_full::SimdFloatDiv            0      0.00%     26.12% # attempts to use FU when none available
system.switch_cpus.iq.fu_full::SimdFloatMisc            0      0.00%     26.12% # attempts to use FU when none available
system.switch_cpus.iq.fu_full::SimdFloatMult            0      0.00%     26.12% # attempts to use FU when none available
system.switch_cpus.iq.fu_full::SimdFloatMultAcc            0      0.00%     26.12% # attempts to use FU when none available
system.switch_cpus.iq.fu_full::SimdFloatSqrt            0      0.00%     26.12% # attempts to use FU when none available
system.switch_cpus.iq.fu_full::SimdAes              0      0.00%     26.12% # attempts to use FU when none available
system.switch_cpus.iq.fu_full::SimdAesMix            0      0.00%     26.12% # attempts to use FU when none available
system.switch_cpus.iq.fu_full::SimdSha1Hash            0      0.00%     26.12% # attempts to use FU when none available
system.switch_cpus.iq.fu_full::SimdSha1Hash2            0      0.00%     26.12% # attempts to use FU when none available
system.switch_cpus.iq.fu_full::SimdSha256Hash            0      0.00%     26.12% # attempts to use FU when none available
system.switch_cpus.iq.fu_full::SimdSha256Hash2            0      0.00%     26.12% # attempts to use FU when none available
system.switch_cpus.iq.fu_full::SimdShaSigma2            0      0.00%     26.12% # attempts to use FU when none available
system.switch_cpus.iq.fu_full::SimdShaSigma3            0      0.00%     26.12% # attempts to use FU when none available
system.switch_cpus.iq.fu_full::MemRead         883061     73.79%     99.91% # attempts to use FU when none available
system.switch_cpus.iq.fu_full::MemWrite          1037      0.09%    100.00% # attempts to use FU when none available
system.switch_cpus.iq.fu_full::FloatMemRead           30      0.00%    100.00% # attempts to use FU when none available
system.switch_cpus.iq.fu_full::FloatMemWrite            8      0.00%    100.00% # attempts to use FU when none available
system.switch_cpus.iq.fu_full::IprAccess            0      0.00%    100.00% # attempts to use FU when none available
system.switch_cpus.iq.fu_full::InstPrefetch            0      0.00%    100.00% # attempts to use FU when none available
system.switch_cpus.iq.int_alu_accesses      101696145                       # Number of integer alu accesses
system.switch_cpus.iq.int_inst_queue_reads    233614443                       # Number of integer instruction queue reads
system.switch_cpus.iq.int_inst_queue_wakeup_accesses    100268945                       # Number of integer instruction queue wakeup accesses
system.switch_cpus.iq.int_inst_queue_writes    100904379                       # Number of integer instruction queue writes
system.switch_cpus.iq.iqInstsAdded          100451850                       # Number of instructions added to the IQ (excludes non-spec)
system.switch_cpus.iq.iqInstsIssued         100501555                       # Number of instructions issued
system.switch_cpus.iq.iqNonSpecInstsAdded         1203                       # Number of non-speculative instructions added to the IQ
system.switch_cpus.iq.iqSquashedInstsExamined       453038                       # Number of squashed instructions iterated over during squash; mainly for profiling
system.switch_cpus.iq.iqSquashedInstsIssued          714                       # Number of squashed instructions issued
system.switch_cpus.iq.iqSquashedNonSpecRemoved          267                       # Number of squashed non-spec instructions that were removed
system.switch_cpus.iq.iqSquashedOperandsExamined       282985                       # Number of squashed operands that are examined and possibly removed from graph
system.switch_cpus.iq.issued_per_cycle::samples     31416958                       # Number of insts issued each cycle
system.switch_cpus.iq.issued_per_cycle::mean     3.198959                       # Number of insts issued each cycle
system.switch_cpus.iq.issued_per_cycle::stdev     2.574022                       # Number of insts issued each cycle
system.switch_cpus.iq.issued_per_cycle::underflows            0      0.00%      0.00% # Number of insts issued each cycle
system.switch_cpus.iq.issued_per_cycle::0      7676051     24.43%     24.43% # Number of insts issued each cycle
system.switch_cpus.iq.issued_per_cycle::1      1557226      4.96%     29.39% # Number of insts issued each cycle
system.switch_cpus.iq.issued_per_cycle::2      5495134     17.49%     46.88% # Number of insts issued each cycle
system.switch_cpus.iq.issued_per_cycle::3      2912787      9.27%     56.15% # Number of insts issued each cycle
system.switch_cpus.iq.issued_per_cycle::4      2876604      9.16%     65.31% # Number of insts issued each cycle
system.switch_cpus.iq.issued_per_cycle::5      3544124     11.28%     76.59% # Number of insts issued each cycle
system.switch_cpus.iq.issued_per_cycle::6      3663222     11.66%     88.25% # Number of insts issued each cycle
system.switch_cpus.iq.issued_per_cycle::7      1525148      4.85%     93.10% # Number of insts issued each cycle
system.switch_cpus.iq.issued_per_cycle::8      2166662      6.90%    100.00% # Number of insts issued each cycle
system.switch_cpus.iq.issued_per_cycle::overflows            0      0.00%    100.00% # Number of insts issued each cycle
system.switch_cpus.iq.issued_per_cycle::min_value            0                       # Number of insts issued each cycle
system.switch_cpus.iq.issued_per_cycle::max_value            8                       # Number of insts issued each cycle
system.switch_cpus.iq.issued_per_cycle::total     31416958                       # Number of insts issued each cycle
system.switch_cpus.iq.rate                   3.194799                       # Inst issue rate
system.switch_cpus.iq.vec_alu_accesses              0                       # Number of vector alu accesses
system.switch_cpus.iq.vec_inst_queue_reads            0                       # Number of vector instruction queue reads
system.switch_cpus.iq.vec_inst_queue_wakeup_accesses            0                       # Number of vector instruction queue wakeup accesses
system.switch_cpus.iq.vec_inst_queue_writes            0                       # Number of vector instruction queue writes
system.switch_cpus.itb.data_accesses                0                       # DTB accesses
system.switch_cpus.itb.data_acv                     0                       # DTB access violations
system.switch_cpus.itb.data_hits                    0                       # DTB hits
system.switch_cpus.itb.data_misses                  0                       # DTB misses
system.switch_cpus.itb.fetch_accesses         8878700                       # ITB accesses
system.switch_cpus.itb.fetch_acv                    0                       # ITB acv
system.switch_cpus.itb.fetch_hits             8878124                       # ITB hits
system.switch_cpus.itb.fetch_misses               576                       # ITB misses
system.switch_cpus.itb.pwrStateResidencyTicks::UNDEFINED 940672306000                       # Cumulative time (in ticks) in various power states
system.switch_cpus.itb.read_accesses                0                       # DTB read accesses
system.switch_cpus.itb.read_acv                     0                       # DTB read access violations
system.switch_cpus.itb.read_hits                    0                       # DTB read hits
system.switch_cpus.itb.read_misses                  0                       # DTB read misses
system.switch_cpus.itb.write_accesses               0                       # DTB write accesses
system.switch_cpus.itb.write_acv                    0                       # DTB write access violations
system.switch_cpus.itb.write_hits                   0                       # DTB write hits
system.switch_cpus.itb.write_misses                 0                       # DTB write misses
system.switch_cpus.memDep0.conflictingLoads      1993284                       # Number of conflicting loads.
system.switch_cpus.memDep0.conflictingStores      3921272                       # Number of conflicting stores.
system.switch_cpus.memDep0.insertedLoads     26510813                       # Number of loads inserted to the mem dependence unit.
system.switch_cpus.memDep0.insertedStores     12091592                       # Number of stores inserted to the mem dependence unit.
system.switch_cpus.misc_regfile_reads            1234                       # number of misc regfile reads
system.switch_cpus.misc_regfile_writes            936                       # number of misc regfile writes
system.switch_cpus.numCycles                 31457866                       # number of cpu cycles simulated
system.switch_cpus.numWorkItemsCompleted            0                       # number of work items this cpu completed
system.switch_cpus.numWorkItemsStarted              0                       # number of work items this cpu started
system.switch_cpus.pwrStateResidencyTicks::OFF  15728943000                       # Cumulative time (in ticks) in various power states
system.switch_cpus.rename.BlockCycles         4759891                       # Number of cycles rename is blocking
system.switch_cpus.rename.CommittedMaps      83519006                       # Number of HB maps that are committed
system.switch_cpus.rename.IQFullEvents          22790                       # Number of times rename has blocked due to IQ full
system.switch_cpus.rename.IdleCycles          7938829                       # Number of cycles rename is idle
system.switch_cpus.rename.LQFullEvents        2680862                       # Number of times rename has blocked due to LQ full
system.switch_cpus.rename.ROBFullEvents           155                       # Number of times rename has blocked due to ROB full
system.switch_cpus.rename.RenameLookups     162152370                       # Number of register rename lookups that rename has made
system.switch_cpus.rename.RenamedInsts      100571312                       # Number of instructions processed by rename
system.switch_cpus.rename.RenamedOperands     83946846                       # Number of destination operands rename has renamed
system.switch_cpus.rename.RunCycles          14038825                       # Number of cycles rename is running
system.switch_cpus.rename.SQFullEvents        1635642                       # Number of times rename has blocked due to SQ full
system.switch_cpus.rename.SquashCycles          15164                       # Number of cycles rename is squashing
system.switch_cpus.rename.UnblockCycles       4628281                       # Number of cycles rename is unblocking
system.switch_cpus.rename.UndoneMaps           427815                       # Number of HB maps that are undone due to squashing
system.switch_cpus.rename.fp_rename_lookups         1839                       # Number of floating rename lookups
system.switch_cpus.rename.int_rename_lookups    162150249                       # Number of integer rename lookups
system.switch_cpus.rename.serializeStallCycles        35967                       # count of cycles rename stalled for serializing inst
system.switch_cpus.rename.serializingInsts          946                       # count of serializing insts renamed
system.switch_cpus.rename.skidInsts           4264232                       # count of insts added to the skid buffer
system.switch_cpus.rename.tempSerializingInsts          622                       # count of temporary serializing insts renamed
system.switch_cpus.rob.rob_reads            122401094                       # The number of ROB reads
system.switch_cpus.rob.rob_writes           201003773                       # The number of ROB writes
system.switch_cpus.timesIdled                     314                       # Number of times that the entire CPU went into an idle state and unscheduled itself
system.tol2bus.pkt_count_system.cpu.icache.mem_side::system.l2.cpu_side         1631                       # Packet count per connected master and slave (bytes)
system.tol2bus.pkt_count_system.cpu.dcache.mem_side::system.l2.cpu_side      1075357                       # Packet count per connected master and slave (bytes)
system.tol2bus.pkt_count::total               1076988                       # Packet count per connected master and slave (bytes)
system.tol2bus.pkt_size_system.cpu.icache.mem_side::system.l2.cpu_side        61696                       # Cumulative packet size per connected master and slave (bytes)
system.tol2bus.pkt_size_system.cpu.dcache.mem_side::system.l2.cpu_side     36507200                       # Cumulative packet size per connected master and slave (bytes)
system.tol2bus.pkt_size::total               36568896                       # Cumulative packet size per connected master and slave (bytes)
system.tol2bus.pwrStateResidencyTicks::UNDEFINED 940672306000                       # Cumulative time (in ticks) in various power states
system.tol2bus.reqLayer0.occupancy          570946500                       # Layer occupancy (ticks)
system.tol2bus.reqLayer0.utilization              3.6                       # Layer utilization (%)
system.tol2bus.respLayer0.occupancy            997999                       # Layer occupancy (ticks)
system.tol2bus.respLayer0.utilization             0.0                       # Layer utilization (%)
system.tol2bus.respLayer1.occupancy         537925000                       # Layer occupancy (ticks)
system.tol2bus.respLayer1.utilization             3.4                       # Layer utilization (%)
system.tol2bus.snoopTraffic                   4222720                       # Total snoop traffic (bytes)
system.tol2bus.snoop_fanout::samples           426912                       # Request fanout histogram
system.tol2bus.snoop_fanout::mean            0.001096                       # Request fanout histogram
system.tol2bus.snoop_fanout::stdev           0.033091                       # Request fanout histogram
system.tol2bus.snoop_fanout::underflows             0      0.00%      0.00% # Request fanout histogram
system.tol2bus.snoop_fanout::0                 426444     99.89%     99.89% # Request fanout histogram
system.tol2bus.snoop_fanout::1                    468      0.11%    100.00% # Request fanout histogram
system.tol2bus.snoop_fanout::2                      0      0.00%    100.00% # Request fanout histogram
system.tol2bus.snoop_fanout::overflows              0      0.00%    100.00% # Request fanout histogram
system.tol2bus.snoop_fanout::min_value              0                       # Request fanout histogram
system.tol2bus.snoop_fanout::max_value              1                       # Request fanout histogram
system.tol2bus.snoop_fanout::total             426912                       # Request fanout histogram
system.tol2bus.snoop_filter.hit_multi_requests            0                       # Number of requests hitting in the snoop filter with multiple (>1) holders of the requested data.
system.tol2bus.snoop_filter.hit_multi_snoops            0                       # Number of snoops hitting in the snoop filter with multiple (>1) holders of the requested data.
system.tol2bus.snoop_filter.hit_single_requests       358408                       # Number of requests hitting in the snoop filter with a single holder of the requested data.
system.tol2bus.snoop_filter.hit_single_snoops          468                       # Number of snoops hitting in the snoop filter with a single holder of the requested data.
system.tol2bus.snoop_filter.tot_requests       717698                       # Total number of requests made to the snoop filter.
system.tol2bus.snoop_filter.tot_snoops            468                       # Total number of snoops made to the snoop filter.
system.tol2bus.snoops                           67622                       # Total snoops (count)
system.tol2bus.trans_dist::ReadResp            151658                       # Transaction distribution
system.tol2bus.trans_dist::WritebackDirty       277784                       # Transaction distribution
system.tol2bus.trans_dist::WritebackClean          297                       # Transaction distribution
system.tol2bus.trans_dist::CleanEvict          147949                       # Transaction distribution
system.tol2bus.trans_dist::ReadExReq           207630                       # Transaction distribution
system.tol2bus.trans_dist::ReadExResp          207630                       # Transaction distribution
system.tol2bus.trans_dist::ReadCleanReq           667                       # Transaction distribution
system.tol2bus.trans_dist::ReadSharedReq       150991                       # Transaction distribution
system.tol2bus.trans_dist::InvalidateReq            2                       # Transaction distribution
system.tol2bus.trans_dist::InvalidateResp            2                       # Transaction distribution
system.voltage_domain.voltage                       1                       # Voltage in Volts

---------- End Simulation Statistics   ----------
