
******************************directory****************************
spec_dir: /home/cuihongwei/experiment/mcpat-gem5-master/spec2006/benchspec/CPU2006
run_dir:  /home/cuihongwei/experiment/mcpat-gem5-master/spec2006/benchspec/CPU2006/403.gcc/run/run_base_ref_amd64.0001
gem5_dir: /home/cuihongwei/experiment/experiment-gem5/raw-gem5
gem5_output_dir: /home/cuihongwei/experiment/experiment-gem5/raw-gem5/output/403.gcc/alpha-OLD-403.gcc-input1-190330-205002
benchmark_output:/home/cuihongwei/experiment/experiment-gem5/raw-gem5/output/403.gcc/alpha-OLD-403.gcc-input1-190330-205002
checkpoint_dir:/home/cuihongwei/experiment/experiment-gem5/pubs-gem5/output/alpha-403.gcc-checkpoint-input1

******************************benchmark****************************
target:     403.gcc
executable: gcc
args:       166.i -o 166.s
input:      
output:     /home/cuihongwei/experiment/experiment-gem5/raw-gem5/output/403.gcc/alpha-OLD-403.gcc-input1-190330-205002/166.out
errout:     /home/cuihongwei/experiment/experiment-gem5/raw-gem5/output/403.gcc/alpha-OLD-403.gcc-input1-190330-205002/166.err

******************************gem5****************************
arch:       /home/cuihongwei/experiment/experiment-gem5/raw-gem5/build/ALPHA/gem5.opt
config:     /home/cuihongwei/experiment/experiment-gem5/raw-gem5/configs/example/se.py
args:       --num-cpus=1 --mem-size=8GB --caches --l1d_size=32kB --l1d_assoc=8 --l1i_size=32kB --l1i_assoc=8 --l2cache --l2_size=2MB --l2_assoc=16 --at-instruction --checkpoint-restore=5000000000 --maxinsts=100000000 --cpu-type=DerivO3CPU
debugFlag:  --debug-flags=ShowRunning

******************************simulation****************************
start time:(year-mon-day hour-minute-second)19-03-30 20-50-02
gem5 Simulator System.  http://gem5.org
gem5 is copyrighted software; use the --copyright option for details.

gem5 compiled Mar 30 2019 20:24:53
gem5 started Mar 30 2019 20:50:02
gem5 executing on mprc-R730, pid 22326
command line: /home/cuihongwei/experiment/experiment-gem5/raw-gem5/build/ALPHA/gem5.opt --outdir=/home/cuihongwei/experiment/experiment-gem5/raw-gem5/output/403.gcc/alpha-OLD-403.gcc-input1-190330-205002 --debug-flags=ShowRunning /home/cuihongwei/experiment/experiment-gem5/raw-gem5/configs/example/se.py --num-cpus=1 --mem-size=8GB --caches --l1d_size=32kB --l1d_assoc=8 --l1i_size=32kB --l1i_assoc=8 --l2cache --l2_size=2MB --l2_assoc=16 --at-instruction --checkpoint-restore=5000000000 --maxinsts=100000000 --cpu-type=DerivO3CPU --checkpoint-dir=/home/cuihongwei/experiment/experiment-gem5/pubs-gem5/output/alpha-403.gcc-checkpoint-input1 --cmd=/home/cuihongwei/experiment/mcpat-gem5-master/spec2006/benchspec/CPU2006/403.gcc/run/build_peak_alpha.0001/gcc '--options=166.i -o 166.s' --output=/home/cuihongwei/experiment/experiment-gem5/raw-gem5/output/403.gcc/alpha-OLD-403.gcc-input1-190330-205002/166.out --input= --errout=/home/cuihongwei/experiment/experiment-gem5/raw-gem5/output/403.gcc/alpha-OLD-403.gcc-input1-190330-205002/166.err

Global frequency set at 1000000000000 ticks per second
Switch at curTick count:10000
Switched CPUS @ tick 2435413371500
switching cpus
**** REAL SIMULATION ****
2435413372000: system.switch_cpus: Raw Gem5 Running in Cycle:               0, Inst:               0
2435471163000: system.switch_cpus: Raw Gem5 Running in Cycle:          100000, Inst:           93373
2435521757000: system.switch_cpus: Raw Gem5 Running in Cycle:          200000, Inst:          221016
2435571757000: system.switch_cpus: Raw Gem5 Running in Cycle:          300000, Inst:          370521
2435621798000: system.switch_cpus: Raw Gem5 Running in Cycle:          400000, Inst:          526326
2435671966000: system.switch_cpus: Raw Gem5 Running in Cycle:          500000, Inst:          659103
2435721966000: system.switch_cpus: Raw Gem5 Running in Cycle:          600000, Inst:          824953
2435771966000: system.switch_cpus: Raw Gem5 Running in Cycle:          700000, Inst:         1013315
2435821966000: system.switch_cpus: Raw Gem5 Running in Cycle:          800000, Inst:         1189810
2435871966000: system.switch_cpus: Raw Gem5 Running in Cycle:          900000, Inst:         1360340
2435921966000: system.switch_cpus: Raw Gem5 Running in Cycle:         1000000, Inst:         1485747
2435971966000: system.switch_cpus: Raw Gem5 Running in Cycle:         1100000, Inst:         1649836
2436021966000: system.switch_cpus: Raw Gem5 Running in Cycle:         1200000, Inst:         1830032
2436071966000: system.switch_cpus: Raw Gem5 Running in Cycle:         1300000, Inst:         2013946
2436121966000: system.switch_cpus: Raw Gem5 Running in Cycle:         1400000, Inst:         2191411
2436171966000: system.switch_cpus: Raw Gem5 Running in Cycle:         1500000, Inst:         2346657
2436221995500: system.switch_cpus: Raw Gem5 Running in Cycle:         1600000, Inst:         2480893
2436271995500: system.switch_cpus: Raw Gem5 Running in Cycle:         1700000, Inst:         2649890
2436321995500: system.switch_cpus: Raw Gem5 Running in Cycle:         1800000, Inst:         2838852
2436371995500: system.switch_cpus: Raw Gem5 Running in Cycle:         1900000, Inst:         3026039
2436421995500: system.switch_cpus: Raw Gem5 Running in Cycle:         2000000, Inst:         3198292
2436471995500: system.switch_cpus: Raw Gem5 Running in Cycle:         2100000, Inst:         3358054
2436522005500: system.switch_cpus: Raw Gem5 Running in Cycle:         2200000, Inst:         3536430
2436572005500: system.switch_cpus: Raw Gem5 Running in Cycle:         2300000, Inst:         3641248
2436622005500: system.switch_cpus: Raw Gem5 Running in Cycle:         2400000, Inst:         3741270
2436672005500: system.switch_cpus: Raw Gem5 Running in Cycle:         2500000, Inst:         3894917
2436722005500: system.switch_cpus: Raw Gem5 Running in Cycle:         2600000, Inst:         4034853
2436772005500: system.switch_cpus: Raw Gem5 Running in Cycle:         2700000, Inst:         4212359
2436822031500: system.switch_cpus: Raw Gem5 Running in Cycle:         2800000, Inst:         4332455
2436872031500: system.switch_cpus: Raw Gem5 Running in Cycle:         2900000, Inst:         4503457
2436922031500: system.switch_cpus: Raw Gem5 Running in Cycle:         3000000, Inst:         4656828
2436972031500: system.switch_cpus: Raw Gem5 Running in Cycle:         3100000, Inst:         4818755
2437022031500: system.switch_cpus: Raw Gem5 Running in Cycle:         3200000, Inst:         4978628
2437072031500: system.switch_cpus: Raw Gem5 Running in Cycle:         3300000, Inst:         5150266
2437122031500: system.switch_cpus: Raw Gem5 Running in Cycle:         3400000, Inst:         5312185
2437172031500: system.switch_cpus: Raw Gem5 Running in Cycle:         3500000, Inst:         5445456
2437222031500: system.switch_cpus: Raw Gem5 Running in Cycle:         3600000, Inst:         5609809
2437272031500: system.switch_cpus: Raw Gem5 Running in Cycle:         3700000, Inst:         5801178
2437322031500: system.switch_cpus: Raw Gem5 Running in Cycle:         3800000, Inst:         5989428
2437372031500: system.switch_cpus: Raw Gem5 Running in Cycle:         3900000, Inst:         6149577
2437422031500: system.switch_cpus: Raw Gem5 Running in Cycle:         4000000, Inst:         6281590
2437472031500: system.switch_cpus: Raw Gem5 Running in Cycle:         4100000, Inst:         6432909
2437522031500: system.switch_cpus: Raw Gem5 Running in Cycle:         4200000, Inst:         6591230
2437572031500: system.switch_cpus: Raw Gem5 Running in Cycle:         4300000, Inst:         6722772
2437622031500: system.switch_cpus: Raw Gem5 Running in Cycle:         4400000, Inst:         6883698
2437672031500: system.switch_cpus: Raw Gem5 Running in Cycle:         4500000, Inst:         7071207
2437722031500: system.switch_cpus: Raw Gem5 Running in Cycle:         4600000, Inst:         7249315
2437772031500: system.switch_cpus: Raw Gem5 Running in Cycle:         4700000, Inst:         7422708
2437822031500: system.switch_cpus: Raw Gem5 Running in Cycle:         4800000, Inst:         7551593
2437872031500: system.switch_cpus: Raw Gem5 Running in Cycle:         4900000, Inst:         7718388
2437922031500: system.switch_cpus: Raw Gem5 Running in Cycle:         5000000, Inst:         7898314
2437972031500: system.switch_cpus: Raw Gem5 Running in Cycle:         5100000, Inst:         8083424
2438022031500: system.switch_cpus: Raw Gem5 Running in Cycle:         5200000, Inst:         8265773
2438072031500: system.switch_cpus: Raw Gem5 Running in Cycle:         5300000, Inst:         8417418
2438122031500: system.switch_cpus: Raw Gem5 Running in Cycle:         5400000, Inst:         8552067
2438172031500: system.switch_cpus: Raw Gem5 Running in Cycle:         5500000, Inst:         8729779
2438222031500: system.switch_cpus: Raw Gem5 Running in Cycle:         5600000, Inst:         8918094
2438272031500: system.switch_cpus: Raw Gem5 Running in Cycle:         5700000, Inst:         9105307
2438322031500: system.switch_cpus: Raw Gem5 Running in Cycle:         5800000, Inst:         9300415
2438372031500: system.switch_cpus: Raw Gem5 Running in Cycle:         5900000, Inst:         9474183
2438422031500: system.switch_cpus: Raw Gem5 Running in Cycle:         6000000, Inst:         9655102
2438472031500: system.switch_cpus: Raw Gem5 Running in Cycle:         6100000, Inst:         9769776
2438522031500: system.switch_cpus: Raw Gem5 Running in Cycle:         6200000, Inst:         9907271
2438572031500: system.switch_cpus: Raw Gem5 Running in Cycle:         6300000, Inst:        10068110
2438622031500: system.switch_cpus: Raw Gem5 Running in Cycle:         6400000, Inst:        10247418
2438672031500: system.switch_cpus: Raw Gem5 Running in Cycle:         6500000, Inst:        10360720
2438722031500: system.switch_cpus: Raw Gem5 Running in Cycle:         6600000, Inst:        10542157
2438772031500: system.switch_cpus: Raw Gem5 Running in Cycle:         6700000, Inst:        10685665
2438822073500: system.switch_cpus: Raw Gem5 Running in Cycle:         6800000, Inst:        10843641
2438872073500: system.switch_cpus: Raw Gem5 Running in Cycle:         6900000, Inst:        11023268
2438922073500: system.switch_cpus: Raw Gem5 Running in Cycle:         7000000, Inst:        11193867
2438972073500: system.switch_cpus: Raw Gem5 Running in Cycle:         7100000, Inst:        11341062
2439022073500: system.switch_cpus: Raw Gem5 Running in Cycle:         7200000, Inst:        11467781
2439072073500: system.switch_cpus: Raw Gem5 Running in Cycle:         7300000, Inst:        11656345
2439122073500: system.switch_cpus: Raw Gem5 Running in Cycle:         7400000, Inst:        11840383
2439172073500: system.switch_cpus: Raw Gem5 Running in Cycle:         7500000, Inst:        12022672
2439222073500: system.switch_cpus: Raw Gem5 Running in Cycle:         7600000, Inst:        12178876
2439272073500: system.switch_cpus: Raw Gem5 Running in Cycle:         7700000, Inst:        12307440
2439322073500: system.switch_cpus: Raw Gem5 Running in Cycle:         7800000, Inst:        12474878
2439372073500: system.switch_cpus: Raw Gem5 Running in Cycle:         7900000, Inst:        12620838
2439422073500: system.switch_cpus: Raw Gem5 Running in Cycle:         8000000, Inst:        12749729
2439472073500: system.switch_cpus: Raw Gem5 Running in Cycle:         8100000, Inst:        12940180
2439522073500: system.switch_cpus: Raw Gem5 Running in Cycle:         8200000, Inst:        13126440
2439572073500: system.switch_cpus: Raw Gem5 Running in Cycle:         8300000, Inst:        13306020
2439622073500: system.switch_cpus: Raw Gem5 Running in Cycle:         8400000, Inst:        13469047
2439672073500: system.switch_cpus: Raw Gem5 Running in Cycle:         8500000, Inst:        13604583
2439722073500: system.switch_cpus: Raw Gem5 Running in Cycle:         8600000, Inst:        13763366
2439772073500: system.switch_cpus: Raw Gem5 Running in Cycle:         8700000, Inst:        13951419
2439822073500: system.switch_cpus: Raw Gem5 Running in Cycle:         8800000, Inst:        14138368
2439872073500: system.switch_cpus: Raw Gem5 Running in Cycle:         8900000, Inst:        14309881
2439922073500: system.switch_cpus: Raw Gem5 Running in Cycle:         9000000, Inst:        14450435
2439972073500: system.switch_cpus: Raw Gem5 Running in Cycle:         9100000, Inst:        14596763
2440022073500: system.switch_cpus: Raw Gem5 Running in Cycle:         9200000, Inst:        14775988
2440072073500: system.switch_cpus: Raw Gem5 Running in Cycle:         9300000, Inst:        14961585
2440122073500: system.switch_cpus: Raw Gem5 Running in Cycle:         9400000, Inst:        15160276
2440172073500: system.switch_cpus: Raw Gem5 Running in Cycle:         9500000, Inst:        15355309
2440222073500: system.switch_cpus: Raw Gem5 Running in Cycle:         9600000, Inst:        15534018
2440272658500: system.switch_cpus: Raw Gem5 Running in Cycle:         9700000, Inst:        15687320
2440322658500: system.switch_cpus: Raw Gem5 Running in Cycle:         9800000, Inst:        15792608
2440372658500: system.switch_cpus: Raw Gem5 Running in Cycle:         9900000, Inst:        15944363
2440422658500: system.switch_cpus: Raw Gem5 Running in Cycle:        10000000, Inst:        16083418
2440472658500: system.switch_cpus: Raw Gem5 Running in Cycle:        10100000, Inst:        16222935
2440522658500: system.switch_cpus: Raw Gem5 Running in Cycle:        10200000, Inst:        16402772
2440572658500: system.switch_cpus: Raw Gem5 Running in Cycle:        10300000, Inst:        16592935
2440622658500: system.switch_cpus: Raw Gem5 Running in Cycle:        10400000, Inst:        16724194
2440672658500: system.switch_cpus: Raw Gem5 Running in Cycle:        10500000, Inst:        16882023
2440722658500: system.switch_cpus: Raw Gem5 Running in Cycle:        10600000, Inst:        17001462
2440772658500: system.switch_cpus: Raw Gem5 Running in Cycle:        10700000, Inst:        17178332
2440822658500: system.switch_cpus: Raw Gem5 Running in Cycle:        10800000, Inst:        17320942
2440872658500: system.switch_cpus: Raw Gem5 Running in Cycle:        10900000, Inst:        17485220
2440922658500: system.switch_cpus: Raw Gem5 Running in Cycle:        11000000, Inst:        17648634
2440972658500: system.switch_cpus: Raw Gem5 Running in Cycle:        11100000, Inst:        17812473
2441022700500: system.switch_cpus: Raw Gem5 Running in Cycle:        11200000, Inst:        17946571
2441072700500: system.switch_cpus: Raw Gem5 Running in Cycle:        11300000, Inst:        18126214
2441122700500: system.switch_cpus: Raw Gem5 Running in Cycle:        11400000, Inst:        18294933
2441172700500: system.switch_cpus: Raw Gem5 Running in Cycle:        11500000, Inst:        18423231
2441222700500: system.switch_cpus: Raw Gem5 Running in Cycle:        11600000, Inst:        18589103
2441272700500: system.switch_cpus: Raw Gem5 Running in Cycle:        11700000, Inst:        18772563
2441322700500: system.switch_cpus: Raw Gem5 Running in Cycle:        11800000, Inst:        18958573
2441372700500: system.switch_cpus: Raw Gem5 Running in Cycle:        11900000, Inst:        19137466
2441422700500: system.switch_cpus: Raw Gem5 Running in Cycle:        12000000, Inst:        19277891
2441472700500: system.switch_cpus: Raw Gem5 Running in Cycle:        12100000, Inst:        19409878
2441522700500: system.switch_cpus: Raw Gem5 Running in Cycle:        12200000, Inst:        19592636
2441572700500: system.switch_cpus: Raw Gem5 Running in Cycle:        12300000, Inst:        19708823
2441622700500: system.switch_cpus: Raw Gem5 Running in Cycle:        12400000, Inst:        19871641
2441672700500: system.switch_cpus: Raw Gem5 Running in Cycle:        12500000, Inst:        20053191
2441722700500: system.switch_cpus: Raw Gem5 Running in Cycle:        12600000, Inst:        20230968
2441772700500: system.switch_cpus: Raw Gem5 Running in Cycle:        12700000, Inst:        20410593
2441822700500: system.switch_cpus: Raw Gem5 Running in Cycle:        12800000, Inst:        20547519
2441872700500: system.switch_cpus: Raw Gem5 Running in Cycle:        12900000, Inst:        20700727
2441922700500: system.switch_cpus: Raw Gem5 Running in Cycle:        13000000, Inst:        20880042
2441972700500: system.switch_cpus: Raw Gem5 Running in Cycle:        13100000, Inst:        21065784
2442022700500: system.switch_cpus: Raw Gem5 Running in Cycle:        13200000, Inst:        21248719
2442072700500: system.switch_cpus: Raw Gem5 Running in Cycle:        13300000, Inst:        21422103
2442122700500: system.switch_cpus: Raw Gem5 Running in Cycle:        13400000, Inst:        21552087
2442172700500: system.switch_cpus: Raw Gem5 Running in Cycle:        13500000, Inst:        21712959
2442222700500: system.switch_cpus: Raw Gem5 Running in Cycle:        13600000, Inst:        21901990
2442272700500: system.switch_cpus: Raw Gem5 Running in Cycle:        13700000, Inst:        22088186
2442322700500: system.switch_cpus: Raw Gem5 Running in Cycle:        13800000, Inst:        22284104
2442372700500: system.switch_cpus: Raw Gem5 Running in Cycle:        13900000, Inst:        22471628
2442422740500: system.switch_cpus: Raw Gem5 Running in Cycle:        14000000, Inst:        22566245
2442472740500: system.switch_cpus: Raw Gem5 Running in Cycle:        14100000, Inst:        22685659
2442522740500: system.switch_cpus: Raw Gem5 Running in Cycle:        14200000, Inst:        22842953
2442572740500: system.switch_cpus: Raw Gem5 Running in Cycle:        14300000, Inst:        22969209
2442622740500: system.switch_cpus: Raw Gem5 Running in Cycle:        14400000, Inst:        23099946
2442672740500: system.switch_cpus: Raw Gem5 Running in Cycle:        14500000, Inst:        23261613
2442722740500: system.switch_cpus: Raw Gem5 Running in Cycle:        14600000, Inst:        23447143
2442772740500: system.switch_cpus: Raw Gem5 Running in Cycle:        14700000, Inst:        23578986
2442822740500: system.switch_cpus: Raw Gem5 Running in Cycle:        14800000, Inst:        23717662
2442872740500: system.switch_cpus: Raw Gem5 Running in Cycle:        14900000, Inst:        23868639
2442922740500: system.switch_cpus: Raw Gem5 Running in Cycle:        15000000, Inst:        24046668
2442973934500: system.switch_cpus: Raw Gem5 Running in Cycle:        15100000, Inst:        24163010
2443023934500: system.switch_cpus: Raw Gem5 Running in Cycle:        15200000, Inst:        24335100
2443073934500: system.switch_cpus: Raw Gem5 Running in Cycle:        15300000, Inst:        24487081
2443123977500: system.switch_cpus: Raw Gem5 Running in Cycle:        15400000, Inst:        24649576
2443173977500: system.switch_cpus: Raw Gem5 Running in Cycle:        15500000, Inst:        24813601
2443223977500: system.switch_cpus: Raw Gem5 Running in Cycle:        15600000, Inst:        24985972
2443273977500: system.switch_cpus: Raw Gem5 Running in Cycle:        15700000, Inst:        25148094
2443323977500: system.switch_cpus: Raw Gem5 Running in Cycle:        15800000, Inst:        25284735
2443373977500: system.switch_cpus: Raw Gem5 Running in Cycle:        15900000, Inst:        25451419
2443423977500: system.switch_cpus: Raw Gem5 Running in Cycle:        16000000, Inst:        25640485
2443473977500: system.switch_cpus: Raw Gem5 Running in Cycle:        16100000, Inst:        25827546
2443523977500: system.switch_cpus: Raw Gem5 Running in Cycle:        16200000, Inst:        25987882
2443573977500: system.switch_cpus: Raw Gem5 Running in Cycle:        16300000, Inst:        26122188
2443623977500: system.switch_cpus: Raw Gem5 Running in Cycle:        16400000, Inst:        26275155
2443673977500: system.switch_cpus: Raw Gem5 Running in Cycle:        16500000, Inst:        26433161
2443723977500: system.switch_cpus: Raw Gem5 Running in Cycle:        16600000, Inst:        26569465
2443773977500: system.switch_cpus: Raw Gem5 Running in Cycle:        16700000, Inst:        26737897
2443823977500: system.switch_cpus: Raw Gem5 Running in Cycle:        16800000, Inst:        26926020
2443873977500: system.switch_cpus: Raw Gem5 Running in Cycle:        16900000, Inst:        27103282
2443923977500: system.switch_cpus: Raw Gem5 Running in Cycle:        17000000, Inst:        27278803
2443973977500: system.switch_cpus: Raw Gem5 Running in Cycle:        17100000, Inst:        27408823
2444023977500: system.switch_cpus: Raw Gem5 Running in Cycle:        17200000, Inst:        27575589
2444073977500: system.switch_cpus: Raw Gem5 Running in Cycle:        17300000, Inst:        27759544
2444123977500: system.switch_cpus: Raw Gem5 Running in Cycle:        17400000, Inst:        27944677
2444173977500: system.switch_cpus: Raw Gem5 Running in Cycle:        17500000, Inst:        28128014
2444223977500: system.switch_cpus: Raw Gem5 Running in Cycle:        17600000, Inst:        28268209
2444273977500: system.switch_cpus: Raw Gem5 Running in Cycle:        17700000, Inst:        28398977
2444323977500: system.switch_cpus: Raw Gem5 Running in Cycle:        17800000, Inst:        28587965
2444373977500: system.switch_cpus: Raw Gem5 Running in Cycle:        17900000, Inst:        28767120
2444423977500: system.switch_cpus: Raw Gem5 Running in Cycle:        18000000, Inst:        28964680
2444473977500: system.switch_cpus: Raw Gem5 Running in Cycle:        18100000, Inst:        29159752
2444524017500: system.switch_cpus: Raw Gem5 Running in Cycle:        18200000, Inst:        29313245
2444574017500: system.switch_cpus: Raw Gem5 Running in Cycle:        18300000, Inst:        29396738
2444624017500: system.switch_cpus: Raw Gem5 Running in Cycle:        18400000, Inst:        29525923
2444674017500: system.switch_cpus: Raw Gem5 Running in Cycle:        18500000, Inst:        29707925
2444724017500: system.switch_cpus: Raw Gem5 Running in Cycle:        18600000, Inst:        29800371
2444774017500: system.switch_cpus: Raw Gem5 Running in Cycle:        18700000, Inst:        29934791
2444824017500: system.switch_cpus: Raw Gem5 Running in Cycle:        18800000, Inst:        30118771
2444874017500: system.switch_cpus: Raw Gem5 Running in Cycle:        18900000, Inst:        30290356
2444924017500: system.switch_cpus: Raw Gem5 Running in Cycle:        19000000, Inst:        30385890
2444974017500: system.switch_cpus: Raw Gem5 Running in Cycle:        19100000, Inst:        30542038
2445024017500: system.switch_cpus: Raw Gem5 Running in Cycle:        19200000, Inst:        30698888
2445074017500: system.switch_cpus: Raw Gem5 Running in Cycle:        19300000, Inst:        30829385
2445124017500: system.switch_cpus: Raw Gem5 Running in Cycle:        19400000, Inst:        31002719
2445174017500: system.switch_cpus: Raw Gem5 Running in Cycle:        19500000, Inst:        31131496
2445224017500: system.switch_cpus: Raw Gem5 Running in Cycle:        19600000, Inst:        31268204
2445274017500: system.switch_cpus: Raw Gem5 Running in Cycle:        19700000, Inst:        31422062
2445325221000: system.switch_cpus: Raw Gem5 Running in Cycle:        19800000, Inst:        31546036
2445375221000: system.switch_cpus: Raw Gem5 Running in Cycle:        19900000, Inst:        31711311
2445425221000: system.switch_cpus: Raw Gem5 Running in Cycle:        20000000, Inst:        31867676
2445475221000: system.switch_cpus: Raw Gem5 Running in Cycle:        20100000, Inst:        32013389
2445525221000: system.switch_cpus: Raw Gem5 Running in Cycle:        20200000, Inst:        32193661
2445575221000: system.switch_cpus: Raw Gem5 Running in Cycle:        20300000, Inst:        32337105
2445625263000: system.switch_cpus: Raw Gem5 Running in Cycle:        20400000, Inst:        32479375
2445675263000: system.switch_cpus: Raw Gem5 Running in Cycle:        20500000, Inst:        32674245
2445725263000: system.switch_cpus: Raw Gem5 Running in Cycle:        20600000, Inst:        32836674
2445775263000: system.switch_cpus: Raw Gem5 Running in Cycle:        20700000, Inst:        32979412
2445826175000: system.switch_cpus: Raw Gem5 Running in Cycle:        20800000, Inst:        33125282
2445876175000: system.switch_cpus: Raw Gem5 Running in Cycle:        20900000, Inst:        33306794
2445926175000: system.switch_cpus: Raw Gem5 Running in Cycle:        21000000, Inst:        33492405
2445976175000: system.switch_cpus: Raw Gem5 Running in Cycle:        21100000, Inst:        33672953
2446026175000: system.switch_cpus: Raw Gem5 Running in Cycle:        21200000, Inst:        33839807
2446076175000: system.switch_cpus: Raw Gem5 Running in Cycle:        21300000, Inst:        33968387
2446126175000: system.switch_cpus: Raw Gem5 Running in Cycle:        21400000, Inst:        34135584
2446176175000: system.switch_cpus: Raw Gem5 Running in Cycle:        21500000, Inst:        34268987
2446226175000: system.switch_cpus: Raw Gem5 Running in Cycle:        21600000, Inst:        34406873
2446276175000: system.switch_cpus: Raw Gem5 Running in Cycle:        21700000, Inst:        34587251
2446326175000: system.switch_cpus: Raw Gem5 Running in Cycle:        21800000, Inst:        34782642
2446376175000: system.switch_cpus: Raw Gem5 Running in Cycle:        21900000, Inst:        34962663
2446426175000: system.switch_cpus: Raw Gem5 Running in Cycle:        22000000, Inst:        35111415
2446476175000: system.switch_cpus: Raw Gem5 Running in Cycle:        22100000, Inst:        35248371
2446526175000: system.switch_cpus: Raw Gem5 Running in Cycle:        22200000, Inst:        35417184
2446576175000: system.switch_cpus: Raw Gem5 Running in Cycle:        22300000, Inst:        35605977
2446626175000: system.switch_cpus: Raw Gem5 Running in Cycle:        22400000, Inst:        35793760
2446676175000: system.switch_cpus: Raw Gem5 Running in Cycle:        22500000, Inst:        35956341
2446726175000: system.switch_cpus: Raw Gem5 Running in Cycle:        22600000, Inst:        36094625
2446776175000: system.switch_cpus: Raw Gem5 Running in Cycle:        22700000, Inst:        36248429
2446826175000: system.switch_cpus: Raw Gem5 Running in Cycle:        22800000, Inst:        36429240
2446876175000: system.switch_cpus: Raw Gem5 Running in Cycle:        22900000, Inst:        36614809
2446926175000: system.switch_cpus: Raw Gem5 Running in Cycle:        23000000, Inst:        36812843
2446976175000: system.switch_cpus: Raw Gem5 Running in Cycle:        23100000, Inst:        37004297
2447026175000: system.switch_cpus: Raw Gem5 Running in Cycle:        23200000, Inst:        37133275
2447076175000: system.switch_cpus: Raw Gem5 Running in Cycle:        23300000, Inst:        37265643
2447126175000: system.switch_cpus: Raw Gem5 Running in Cycle:        23400000, Inst:        37427785
2447176175000: system.switch_cpus: Raw Gem5 Running in Cycle:        23500000, Inst:        37542784
2447226175000: system.switch_cpus: Raw Gem5 Running in Cycle:        23600000, Inst:        37701199
2447276175000: system.switch_cpus: Raw Gem5 Running in Cycle:        23700000, Inst:        37886256
2447326175000: system.switch_cpus: Raw Gem5 Running in Cycle:        23800000, Inst:        38076982
2447376175000: system.switch_cpus: Raw Gem5 Running in Cycle:        23900000, Inst:        38172562
2447426175000: system.switch_cpus: Raw Gem5 Running in Cycle:        24000000, Inst:        38308026
2447476175000: system.switch_cpus: Raw Gem5 Running in Cycle:        24100000, Inst:        38491628
2447526175000: system.switch_cpus: Raw Gem5 Running in Cycle:        24200000, Inst:        38598889
2447576175000: system.switch_cpus: Raw Gem5 Running in Cycle:        24300000, Inst:        38766422
2447626175000: system.switch_cpus: Raw Gem5 Running in Cycle:        24400000, Inst:        38899132
2447676175000: system.switch_cpus: Raw Gem5 Running in Cycle:        24500000, Inst:        39056139
2447726175000: system.switch_cpus: Raw Gem5 Running in Cycle:        24600000, Inst:        39186482
2447776175000: system.switch_cpus: Raw Gem5 Running in Cycle:        24700000, Inst:        39330612
2447826175000: system.switch_cpus: Raw Gem5 Running in Cycle:        24800000, Inst:        39501464
2447876175000: system.switch_cpus: Raw Gem5 Running in Cycle:        24900000, Inst:        39658836
2447926175000: system.switch_cpus: Raw Gem5 Running in Cycle:        25000000, Inst:        39790899
2447976175000: system.switch_cpus: Raw Gem5 Running in Cycle:        25100000, Inst:        39971914
2448026175000: system.switch_cpus: Raw Gem5 Running in Cycle:        25200000, Inst:        40114630
2448076175000: system.switch_cpus: Raw Gem5 Running in Cycle:        25300000, Inst:        40259809
2448126175000: system.switch_cpus: Raw Gem5 Running in Cycle:        25400000, Inst:        40448177
2448176175000: system.switch_cpus: Raw Gem5 Running in Cycle:        25500000, Inst:        40616805
2448226175000: system.switch_cpus: Raw Gem5 Running in Cycle:        25600000, Inst:        40760528
2448276175000: system.switch_cpus: Raw Gem5 Running in Cycle:        25700000, Inst:        40888598
2448326175000: system.switch_cpus: Raw Gem5 Running in Cycle:        25800000, Inst:        41078629
2448376175000: system.switch_cpus: Raw Gem5 Running in Cycle:        25900000, Inst:        41256210
2448426175000: system.switch_cpus: Raw Gem5 Running in Cycle:        26000000, Inst:        41441702
2448476175000: system.switch_cpus: Raw Gem5 Running in Cycle:        26100000, Inst:        41604310
2448526175000: system.switch_cpus: Raw Gem5 Running in Cycle:        26200000, Inst:        41731886
2448576175000: system.switch_cpus: Raw Gem5 Running in Cycle:        26300000, Inst:        41897709
2448626175000: system.switch_cpus: Raw Gem5 Running in Cycle:        26400000, Inst:        42045482
2448676175000: system.switch_cpus: Raw Gem5 Running in Cycle:        26500000, Inst:        42175745
2448726175000: system.switch_cpus: Raw Gem5 Running in Cycle:        26600000, Inst:        42363093
2448776175000: system.switch_cpus: Raw Gem5 Running in Cycle:        26700000, Inst:        42548945
2448826175000: system.switch_cpus: Raw Gem5 Running in Cycle:        26800000, Inst:        42728917
2448876175000: system.switch_cpus: Raw Gem5 Running in Cycle:        26900000, Inst:        42888188
2448926175000: system.switch_cpus: Raw Gem5 Running in Cycle:        27000000, Inst:        43027308
2448976175000: system.switch_cpus: Raw Gem5 Running in Cycle:        27100000, Inst:        43191058
2449026175000: system.switch_cpus: Raw Gem5 Running in Cycle:        27200000, Inst:        43380086
2449076175000: system.switch_cpus: Raw Gem5 Running in Cycle:        27300000, Inst:        43566508
2449126175000: system.switch_cpus: Raw Gem5 Running in Cycle:        27400000, Inst:        43730971
2449176175000: system.switch_cpus: Raw Gem5 Running in Cycle:        27500000, Inst:        43871245
2449226175000: system.switch_cpus: Raw Gem5 Running in Cycle:        27600000, Inst:        44025357
2449276175000: system.switch_cpus: Raw Gem5 Running in Cycle:        27700000, Inst:        44203665
2449326175000: system.switch_cpus: Raw Gem5 Running in Cycle:        27800000, Inst:        44389162
2449376175000: system.switch_cpus: Raw Gem5 Running in Cycle:        27900000, Inst:        44587231
2449426175000: system.switch_cpus: Raw Gem5 Running in Cycle:        28000000, Inst:        44779357
2449476175000: system.switch_cpus: Raw Gem5 Running in Cycle:        28100000, Inst:        44907509
2449526175000: system.switch_cpus: Raw Gem5 Running in Cycle:        28200000, Inst:        45031761
2449576175000: system.switch_cpus: Raw Gem5 Running in Cycle:        28300000, Inst:        45194975
2449626175000: system.switch_cpus: Raw Gem5 Running in Cycle:        28400000, Inst:        45317186
2449676175000: system.switch_cpus: Raw Gem5 Running in Cycle:        28500000, Inst:        45475082
2449726175000: system.switch_cpus: Raw Gem5 Running in Cycle:        28600000, Inst:        45653994
2449776175000: system.switch_cpus: Raw Gem5 Running in Cycle:        28700000, Inst:        45844237
2449826175000: system.switch_cpus: Raw Gem5 Running in Cycle:        28800000, Inst:        45946912
2449876175000: system.switch_cpus: Raw Gem5 Running in Cycle:        28900000, Inst:        46080945
2449926175000: system.switch_cpus: Raw Gem5 Running in Cycle:        29000000, Inst:        46266038
2449976175000: system.switch_cpus: Raw Gem5 Running in Cycle:        29100000, Inst:        46371886
2450026175000: system.switch_cpus: Raw Gem5 Running in Cycle:        29200000, Inst:        46539236
2450076175000: system.switch_cpus: Raw Gem5 Running in Cycle:        29300000, Inst:        46674730
2450126175000: system.switch_cpus: Raw Gem5 Running in Cycle:        29400000, Inst:        46831872
2450176175000: system.switch_cpus: Raw Gem5 Running in Cycle:        29500000, Inst:        46961408
2450226175000: system.switch_cpus: Raw Gem5 Running in Cycle:        29600000, Inst:        47102088
2450276175000: system.switch_cpus: Raw Gem5 Running in Cycle:        29700000, Inst:        47273434
2450326175000: system.switch_cpus: Raw Gem5 Running in Cycle:        29800000, Inst:        47435695
2450376175000: system.switch_cpus: Raw Gem5 Running in Cycle:        29900000, Inst:        47561377
2450426175000: system.switch_cpus: Raw Gem5 Running in Cycle:        30000000, Inst:        47742357
2450476175000: system.switch_cpus: Raw Gem5 Running in Cycle:        30100000, Inst:        47882751
2450526175000: system.switch_cpus: Raw Gem5 Running in Cycle:        30200000, Inst:        48038705
2450576175000: system.switch_cpus: Raw Gem5 Running in Cycle:        30300000, Inst:        48220408
2450626175000: system.switch_cpus: Raw Gem5 Running in Cycle:        30400000, Inst:        48392507
2450676175000: system.switch_cpus: Raw Gem5 Running in Cycle:        30500000, Inst:        48541327
2450726175000: system.switch_cpus: Raw Gem5 Running in Cycle:        30600000, Inst:        48673095
2450776175000: system.switch_cpus: Raw Gem5 Running in Cycle:        30700000, Inst:        48853890
2450826175000: system.switch_cpus: Raw Gem5 Running in Cycle:        30800000, Inst:        49038437
2450876175000: system.switch_cpus: Raw Gem5 Running in Cycle:        30900000, Inst:        49216314
2450926175000: system.switch_cpus: Raw Gem5 Running in Cycle:        31000000, Inst:        49378818
2450976175000: system.switch_cpus: Raw Gem5 Running in Cycle:        31100000, Inst:        49512521
2451026175000: system.switch_cpus: Raw Gem5 Running in Cycle:        31200000, Inst:        49675173
2451076175000: system.switch_cpus: Raw Gem5 Running in Cycle:        31300000, Inst:        49829158
2451126175000: system.switch_cpus: Raw Gem5 Running in Cycle:        31400000, Inst:        49958230
2451176175000: system.switch_cpus: Raw Gem5 Running in Cycle:        31500000, Inst:        50135369
2451226175000: system.switch_cpus: Raw Gem5 Running in Cycle:        31600000, Inst:        50322834
2451276175000: system.switch_cpus: Raw Gem5 Running in Cycle:        31700000, Inst:        50500775
2451326175000: system.switch_cpus: Raw Gem5 Running in Cycle:        31800000, Inst:        50669029
2451376175000: system.switch_cpus: Raw Gem5 Running in Cycle:        31900000, Inst:        50798363
2451426175000: system.switch_cpus: Raw Gem5 Running in Cycle:        32000000, Inst:        50955750
2451476175000: system.switch_cpus: Raw Gem5 Running in Cycle:        32100000, Inst:        51144347
2451526175000: system.switch_cpus: Raw Gem5 Running in Cycle:        32200000, Inst:        51330364
2451576175000: system.switch_cpus: Raw Gem5 Running in Cycle:        32300000, Inst:        51499719
2451626175000: system.switch_cpus: Raw Gem5 Running in Cycle:        32400000, Inst:        51643866
2451676175000: system.switch_cpus: Raw Gem5 Running in Cycle:        32500000, Inst:        51787066
2451726175000: system.switch_cpus: Raw Gem5 Running in Cycle:        32600000, Inst:        51968951
2451776175000: system.switch_cpus: Raw Gem5 Running in Cycle:        32700000, Inst:        52154201
2451826175000: system.switch_cpus: Raw Gem5 Running in Cycle:        32800000, Inst:        52352185
2451876175000: system.switch_cpus: Raw Gem5 Running in Cycle:        32900000, Inst:        52547668
2451926175000: system.switch_cpus: Raw Gem5 Running in Cycle:        33000000, Inst:        52679506
2451976175000: system.switch_cpus: Raw Gem5 Running in Cycle:        33100000, Inst:        52791527
2452026175000: system.switch_cpus: Raw Gem5 Running in Cycle:        33200000, Inst:        52954065
2452076175000: system.switch_cpus: Raw Gem5 Running in Cycle:        33300000, Inst:        53078406
2452126175000: system.switch_cpus: Raw Gem5 Running in Cycle:        33400000, Inst:        53230867
2452176175000: system.switch_cpus: Raw Gem5 Running in Cycle:        33500000, Inst:        53410397
2452226175000: system.switch_cpus: Raw Gem5 Running in Cycle:        33600000, Inst:        53600516
2452276175000: system.switch_cpus: Raw Gem5 Running in Cycle:        33700000, Inst:        53715314
2452326175000: system.switch_cpus: Raw Gem5 Running in Cycle:        33800000, Inst:        53846146
2452376175000: system.switch_cpus: Raw Gem5 Running in Cycle:        33900000, Inst:        54026638
2452426175000: system.switch_cpus: Raw Gem5 Running in Cycle:        34000000, Inst:        54128971
2452476175000: system.switch_cpus: Raw Gem5 Running in Cycle:        34100000, Inst:        54299176
2452526175000: system.switch_cpus: Raw Gem5 Running in Cycle:        34200000, Inst:        54452364
2452576175000: system.switch_cpus: Raw Gem5 Running in Cycle:        34300000, Inst:        54602784
2452626175000: system.switch_cpus: Raw Gem5 Running in Cycle:        34400000, Inst:        54757840
2452676175000: system.switch_cpus: Raw Gem5 Running in Cycle:        34500000, Inst:        54875327
2452726175000: system.switch_cpus: Raw Gem5 Running in Cycle:        34600000, Inst:        55025035
2452776175000: system.switch_cpus: Raw Gem5 Running in Cycle:        34700000, Inst:        55164860
2452826175000: system.switch_cpus: Raw Gem5 Running in Cycle:        34800000, Inst:        55343225
2452876175000: system.switch_cpus: Raw Gem5 Running in Cycle:        34900000, Inst:        55476606
2452926175000: system.switch_cpus: Raw Gem5 Running in Cycle:        35000000, Inst:        55631499
2452976175000: system.switch_cpus: Raw Gem5 Running in Cycle:        35100000, Inst:        55801471
2453026175000: system.switch_cpus: Raw Gem5 Running in Cycle:        35200000, Inst:        55970779
2453076175000: system.switch_cpus: Raw Gem5 Running in Cycle:        35300000, Inst:        56111173
2453126175000: system.switch_cpus: Raw Gem5 Running in Cycle:        35400000, Inst:        56287403
2453176175000: system.switch_cpus: Raw Gem5 Running in Cycle:        35500000, Inst:        56458503
2453226175000: system.switch_cpus: Raw Gem5 Running in Cycle:        35600000, Inst:        56587697
2453276175000: system.switch_cpus: Raw Gem5 Running in Cycle:        35700000, Inst:        56752823
2453326175000: system.switch_cpus: Raw Gem5 Running in Cycle:        35800000, Inst:        56935057
2453376175000: system.switch_cpus: Raw Gem5 Running in Cycle:        35900000, Inst:        57119511
2453426175000: system.switch_cpus: Raw Gem5 Running in Cycle:        36000000, Inst:        57296073
2453476175000: system.switch_cpus: Raw Gem5 Running in Cycle:        36100000, Inst:        57438849
2453526175000: system.switch_cpus: Raw Gem5 Running in Cycle:        36200000, Inst:        57574374
2453576175000: system.switch_cpus: Raw Gem5 Running in Cycle:        36300000, Inst:        57754066
2453626175000: system.switch_cpus: Raw Gem5 Running in Cycle:        36400000, Inst:        57868345
2453676175000: system.switch_cpus: Raw Gem5 Running in Cycle:        36500000, Inst:        58028806
2453726175000: system.switch_cpus: Raw Gem5 Running in Cycle:        36600000, Inst:        58209602
2453776175000: system.switch_cpus: Raw Gem5 Running in Cycle:        36700000, Inst:        58385924
2453826175000: system.switch_cpus: Raw Gem5 Running in Cycle:        36800000, Inst:        58565941
2453876175000: system.switch_cpus: Raw Gem5 Running in Cycle:        36900000, Inst:        58705892
2453926175000: system.switch_cpus: Raw Gem5 Running in Cycle:        37000000, Inst:        58858507
2453976175000: system.switch_cpus: Raw Gem5 Running in Cycle:        37100000, Inst:        59037853
2454026175000: system.switch_cpus: Raw Gem5 Running in Cycle:        37200000, Inst:        59223681
2454076175000: system.switch_cpus: Raw Gem5 Running in Cycle:        37300000, Inst:        59405946
2454126175000: system.switch_cpus: Raw Gem5 Running in Cycle:        37400000, Inst:        59580283
2454176175000: system.switch_cpus: Raw Gem5 Running in Cycle:        37500000, Inst:        59707151
2454226175000: system.switch_cpus: Raw Gem5 Running in Cycle:        37600000, Inst:        59865485
2454276175000: system.switch_cpus: Raw Gem5 Running in Cycle:        37700000, Inst:        60054087
2454326175000: system.switch_cpus: Raw Gem5 Running in Cycle:        37800000, Inst:        60241671
2454376175000: system.switch_cpus: Raw Gem5 Running in Cycle:        37900000, Inst:        60436557
2454426175000: system.switch_cpus: Raw Gem5 Running in Cycle:        38000000, Inst:        60607362
2454476175000: system.switch_cpus: Raw Gem5 Running in Cycle:        38100000, Inst:        60737819
2454526175000: system.switch_cpus: Raw Gem5 Running in Cycle:        38200000, Inst:        60869129
2454576175000: system.switch_cpus: Raw Gem5 Running in Cycle:        38300000, Inst:        61013564
2454626175000: system.switch_cpus: Raw Gem5 Running in Cycle:        38400000, Inst:        61149563
2454676175000: system.switch_cpus: Raw Gem5 Running in Cycle:        38500000, Inst:        61319059
2454726175000: system.switch_cpus: Raw Gem5 Running in Cycle:        38600000, Inst:        61465453
2454776175000: system.switch_cpus: Raw Gem5 Running in Cycle:        38700000, Inst:        61616240
2454826175000: system.switch_cpus: Raw Gem5 Running in Cycle:        38800000, Inst:        61793087
2454876175000: system.switch_cpus: Raw Gem5 Running in Cycle:        38900000, Inst:        61940688
2454926217000: system.switch_cpus: Raw Gem5 Running in Cycle:        39000000, Inst:        62079882
2454976217000: system.switch_cpus: Raw Gem5 Running in Cycle:        39100000, Inst:        62274863
2455026217000: system.switch_cpus: Raw Gem5 Running in Cycle:        39200000, Inst:        62438338
2455076217000: system.switch_cpus: Raw Gem5 Running in Cycle:        39300000, Inst:        62581871
2455126217000: system.switch_cpus: Raw Gem5 Running in Cycle:        39400000, Inst:        62722653
2455176217000: system.switch_cpus: Raw Gem5 Running in Cycle:        39500000, Inst:        62901978
2455226217000: system.switch_cpus: Raw Gem5 Running in Cycle:        39600000, Inst:        63087997
2455276217000: system.switch_cpus: Raw Gem5 Running in Cycle:        39700000, Inst:        63267017
2455326217000: system.switch_cpus: Raw Gem5 Running in Cycle:        39800000, Inst:        63432271
2455376217000: system.switch_cpus: Raw Gem5 Running in Cycle:        39900000, Inst:        63556085
2455426217000: system.switch_cpus: Raw Gem5 Running in Cycle:        40000000, Inst:        63721489
2455476217000: system.switch_cpus: Raw Gem5 Running in Cycle:        40100000, Inst:        63864733
2455526217000: system.switch_cpus: Raw Gem5 Running in Cycle:        40200000, Inst:        63995814
2455576217000: system.switch_cpus: Raw Gem5 Running in Cycle:        40300000, Inst:        64177046
2455626217000: system.switch_cpus: Raw Gem5 Running in Cycle:        40400000, Inst:        64363432
2455676217000: system.switch_cpus: Raw Gem5 Running in Cycle:        40500000, Inst:        64542920
2455726217000: system.switch_cpus: Raw Gem5 Running in Cycle:        40600000, Inst:        64700710
2455776217000: system.switch_cpus: Raw Gem5 Running in Cycle:        40700000, Inst:        64843075
2455826217000: system.switch_cpus: Raw Gem5 Running in Cycle:        40800000, Inst:        64998889
2455876217000: system.switch_cpus: Raw Gem5 Running in Cycle:        40900000, Inst:        65188512
2455926217000: system.switch_cpus: Raw Gem5 Running in Cycle:        41000000, Inst:        65375220
2455976217000: system.switch_cpus: Raw Gem5 Running in Cycle:        41100000, Inst:        65539555
2456026217000: system.switch_cpus: Raw Gem5 Running in Cycle:        41200000, Inst:        65678082
2456076217000: system.switch_cpus: Raw Gem5 Running in Cycle:        41300000, Inst:        65829519
2456126217000: system.switch_cpus: Raw Gem5 Running in Cycle:        41400000, Inst:        66009027
2456176217000: system.switch_cpus: Raw Gem5 Running in Cycle:        41500000, Inst:        66194820
2456226217000: system.switch_cpus: Raw Gem5 Running in Cycle:        41600000, Inst:        66393119
2456276217000: system.switch_cpus: Raw Gem5 Running in Cycle:        41700000, Inst:        66579818
2456326217000: system.switch_cpus: Raw Gem5 Running in Cycle:        41800000, Inst:        66707680
2456376217000: system.switch_cpus: Raw Gem5 Running in Cycle:        41900000, Inst:        66838601
2456426217000: system.switch_cpus: Raw Gem5 Running in Cycle:        42000000, Inst:        66999394
2456476217000: system.switch_cpus: Raw Gem5 Running in Cycle:        42100000, Inst:        67114791
2456526217000: system.switch_cpus: Raw Gem5 Running in Cycle:        42200000, Inst:        67274105
2456576217000: system.switch_cpus: Raw Gem5 Running in Cycle:        42300000, Inst:        67453463
2456626217000: system.switch_cpus: Raw Gem5 Running in Cycle:        42400000, Inst:        67643094
2456676217000: system.switch_cpus: Raw Gem5 Running in Cycle:        42500000, Inst:        67831721
2456726217000: system.switch_cpus: Raw Gem5 Running in Cycle:        42600000, Inst:        67936135
2456776217000: system.switch_cpus: Raw Gem5 Running in Cycle:        42700000, Inst:        68066583
2456826217000: system.switch_cpus: Raw Gem5 Running in Cycle:        42800000, Inst:        68251379
2456876217000: system.switch_cpus: Raw Gem5 Running in Cycle:        42900000, Inst:        68353247
2456926217000: system.switch_cpus: Raw Gem5 Running in Cycle:        43000000, Inst:        68521836
2456976217000: system.switch_cpus: Raw Gem5 Running in Cycle:        43100000, Inst:        68663144
2457026217000: system.switch_cpus: Raw Gem5 Running in Cycle:        43200000, Inst:        68821510
2457076217000: system.switch_cpus: Raw Gem5 Running in Cycle:        43300000, Inst:        68987439
2457126217000: system.switch_cpus: Raw Gem5 Running in Cycle:        43400000, Inst:        69114483
2457176217000: system.switch_cpus: Raw Gem5 Running in Cycle:        43500000, Inst:        69289249
2457226217000: system.switch_cpus: Raw Gem5 Running in Cycle:        43600000, Inst:        69436571
2457276217000: system.switch_cpus: Raw Gem5 Running in Cycle:        43700000, Inst:        69591052
2457326217000: system.switch_cpus: Raw Gem5 Running in Cycle:        43800000, Inst:        69757585
2457376217000: system.switch_cpus: Raw Gem5 Running in Cycle:        43900000, Inst:        69912953
2457426261000: system.switch_cpus: Raw Gem5 Running in Cycle:        44000000, Inst:        70053134
2457476261000: system.switch_cpus: Raw Gem5 Running in Cycle:        44100000, Inst:        70241159
2457526261000: system.switch_cpus: Raw Gem5 Running in Cycle:        44200000, Inst:        70405211
2457576261000: system.switch_cpus: Raw Gem5 Running in Cycle:        44300000, Inst:        70543542
2457626261000: system.switch_cpus: Raw Gem5 Running in Cycle:        44400000, Inst:        70694366
2457676261000: system.switch_cpus: Raw Gem5 Running in Cycle:        44500000, Inst:        70873837
2457726261000: system.switch_cpus: Raw Gem5 Running in Cycle:        44600000, Inst:        71058756
2457776261000: system.switch_cpus: Raw Gem5 Running in Cycle:        44700000, Inst:        71240245
2457826261000: system.switch_cpus: Raw Gem5 Running in Cycle:        44800000, Inst:        71407476
2457876261000: system.switch_cpus: Raw Gem5 Running in Cycle:        44900000, Inst:        71533671
2457926261000: system.switch_cpus: Raw Gem5 Running in Cycle:        45000000, Inst:        71695887
2457976261000: system.switch_cpus: Raw Gem5 Running in Cycle:        45100000, Inst:        71828001
2458026261000: system.switch_cpus: Raw Gem5 Running in Cycle:        45200000, Inst:        71965131
2458076261000: system.switch_cpus: Raw Gem5 Running in Cycle:        45300000, Inst:        72144023
2458126261000: system.switch_cpus: Raw Gem5 Running in Cycle:        45400000, Inst:        72337944
2458176261000: system.switch_cpus: Raw Gem5 Running in Cycle:        45500000, Inst:        72517273
2458226261000: system.switch_cpus: Raw Gem5 Running in Cycle:        45600000, Inst:        72663756
2458276261000: system.switch_cpus: Raw Gem5 Running in Cycle:        45700000, Inst:        72803597
2458326261000: system.switch_cpus: Raw Gem5 Running in Cycle:        45800000, Inst:        72971539
2458376261000: system.switch_cpus: Raw Gem5 Running in Cycle:        45900000, Inst:        73159828
2458426261000: system.switch_cpus: Raw Gem5 Running in Cycle:        46000000, Inst:        73338866
2458476261000: system.switch_cpus: Raw Gem5 Running in Cycle:        46100000, Inst:        73508263
2458526261000: system.switch_cpus: Raw Gem5 Running in Cycle:        46200000, Inst:        73649748
2458576261000: system.switch_cpus: Raw Gem5 Running in Cycle:        46300000, Inst:        73803535
2458626261000: system.switch_cpus: Raw Gem5 Running in Cycle:        46400000, Inst:        73983072
2458676261000: system.switch_cpus: Raw Gem5 Running in Cycle:        46500000, Inst:        74168169
2458726261000: system.switch_cpus: Raw Gem5 Running in Cycle:        46600000, Inst:        74365339
2458776261000: system.switch_cpus: Raw Gem5 Running in Cycle:        46700000, Inst:        74550391
2458826261000: system.switch_cpus: Raw Gem5 Running in Cycle:        46800000, Inst:        74678906
2458876261000: system.switch_cpus: Raw Gem5 Running in Cycle:        46900000, Inst:        74828905
2458926261000: system.switch_cpus: Raw Gem5 Running in Cycle:        47000000, Inst:        74994650
2458976261000: system.switch_cpus: Raw Gem5 Running in Cycle:        47100000, Inst:        75132343
2459026261000: system.switch_cpus: Raw Gem5 Running in Cycle:        47200000, Inst:        75309103
2459076261000: system.switch_cpus: Raw Gem5 Running in Cycle:        47300000, Inst:        75444576
2459126261000: system.switch_cpus: Raw Gem5 Running in Cycle:        47400000, Inst:        75604004
2459176261000: system.switch_cpus: Raw Gem5 Running in Cycle:        47500000, Inst:        75773729
2459226261000: system.switch_cpus: Raw Gem5 Running in Cycle:        47600000, Inst:        75938215
2459276261000: system.switch_cpus: Raw Gem5 Running in Cycle:        47700000, Inst:        76077162
2459326261000: system.switch_cpus: Raw Gem5 Running in Cycle:        47800000, Inst:        76254317
2459376261000: system.switch_cpus: Raw Gem5 Running in Cycle:        47900000, Inst:        76423563
2459426261000: system.switch_cpus: Raw Gem5 Running in Cycle:        48000000, Inst:        76557424
2459476261000: system.switch_cpus: Raw Gem5 Running in Cycle:        48100000, Inst:        76715937
2459526261000: system.switch_cpus: Raw Gem5 Running in Cycle:        48200000, Inst:        76897014
2459576261000: system.switch_cpus: Raw Gem5 Running in Cycle:        48300000, Inst:        77082970
2459626261000: system.switch_cpus: Raw Gem5 Running in Cycle:        48400000, Inst:        77260770
2459676261000: system.switch_cpus: Raw Gem5 Running in Cycle:        48500000, Inst:        77412202
2459726261000: system.switch_cpus: Raw Gem5 Running in Cycle:        48600000, Inst:        77555267
2459776261000: system.switch_cpus: Raw Gem5 Running in Cycle:        48700000, Inst:        77713877
2459826261000: system.switch_cpus: Raw Gem5 Running in Cycle:        48800000, Inst:        77842738
2459876261000: system.switch_cpus: Raw Gem5 Running in Cycle:        48900000, Inst:        77991800
2459926261000: system.switch_cpus: Raw Gem5 Running in Cycle:        49000000, Inst:        78169849
2459976261000: system.switch_cpus: Raw Gem5 Running in Cycle:        49100000, Inst:        78350506
2460026261000: system.switch_cpus: Raw Gem5 Running in Cycle:        49200000, Inst:        78531616
2460076261000: system.switch_cpus: Raw Gem5 Running in Cycle:        49300000, Inst:        78677081
2460126261000: system.switch_cpus: Raw Gem5 Running in Cycle:        49400000, Inst:        78815049
2460176261000: system.switch_cpus: Raw Gem5 Running in Cycle:        49500000, Inst:        78994684
2460226261000: system.switch_cpus: Raw Gem5 Running in Cycle:        49600000, Inst:        79180871
2460276261000: system.switch_cpus: Raw Gem5 Running in Cycle:        49700000, Inst:        79365292
2460326261000: system.switch_cpus: Raw Gem5 Running in Cycle:        49800000, Inst:        79536624
2460376261000: system.switch_cpus: Raw Gem5 Running in Cycle:        49900000, Inst:        79663322
2460426261000: system.switch_cpus: Raw Gem5 Running in Cycle:        50000000, Inst:        79830481
2460476261000: system.switch_cpus: Raw Gem5 Running in Cycle:        50100000, Inst:        80011525
2460526261000: system.switch_cpus: Raw Gem5 Running in Cycle:        50200000, Inst:        80197873
2460576261000: system.switch_cpus: Raw Gem5 Running in Cycle:        50300000, Inst:        80393296
2460626261000: system.switch_cpus: Raw Gem5 Running in Cycle:        50400000, Inst:        80569315
2460676261000: system.switch_cpus: Raw Gem5 Running in Cycle:        50500000, Inst:        80663754
2460726261000: system.switch_cpus: Raw Gem5 Running in Cycle:        50600000, Inst:        80817014
2460776261000: system.switch_cpus: Raw Gem5 Running in Cycle:        50700000, Inst:        80979433
2460826261000: system.switch_cpus: Raw Gem5 Running in Cycle:        50800000, Inst:        81102375
2460876261000: system.switch_cpus: Raw Gem5 Running in Cycle:        50900000, Inst:        81266438
2460926261000: system.switch_cpus: Raw Gem5 Running in Cycle:        51000000, Inst:        81457503
2460976261000: system.switch_cpus: Raw Gem5 Running in Cycle:        51100000, Inst:        81650657
2461026261000: system.switch_cpus: Raw Gem5 Running in Cycle:        51200000, Inst:        81776315
2461076261000: system.switch_cpus: Raw Gem5 Running in Cycle:        51300000, Inst:        81896539
2461126261000: system.switch_cpus: Raw Gem5 Running in Cycle:        51400000, Inst:        82059427
2461176261000: system.switch_cpus: Raw Gem5 Running in Cycle:        51500000, Inst:        82178755
2461226261000: system.switch_cpus: Raw Gem5 Running in Cycle:        51600000, Inst:        82335557
2461276261000: system.switch_cpus: Raw Gem5 Running in Cycle:        51700000, Inst:        82490016
2461326261000: system.switch_cpus: Raw Gem5 Running in Cycle:        51800000, Inst:        82628937
2461376261000: system.switch_cpus: Raw Gem5 Running in Cycle:        51900000, Inst:        82758701
2461426261000: system.switch_cpus: Raw Gem5 Running in Cycle:        52000000, Inst:        82914592
2461476261000: system.switch_cpus: Raw Gem5 Running in Cycle:        52100000, Inst:        83055646
2461526261000: system.switch_cpus: Raw Gem5 Running in Cycle:        52200000, Inst:        83234128
2461576261000: system.switch_cpus: Raw Gem5 Running in Cycle:        52300000, Inst:        83373168
2461626261000: system.switch_cpus: Raw Gem5 Running in Cycle:        52400000, Inst:        83532323
2461676261000: system.switch_cpus: Raw Gem5 Running in Cycle:        52500000, Inst:        83701824
2461726261000: system.switch_cpus: Raw Gem5 Running in Cycle:        52600000, Inst:        83862781
2461776261000: system.switch_cpus: Raw Gem5 Running in Cycle:        52700000, Inst:        84005717
2461826261000: system.switch_cpus: Raw Gem5 Running in Cycle:        52800000, Inst:        84182534
2461876261000: system.switch_cpus: Raw Gem5 Running in Cycle:        52900000, Inst:        84351734
2461926261000: system.switch_cpus: Raw Gem5 Running in Cycle:        53000000, Inst:        84495274
2461976261000: system.switch_cpus: Raw Gem5 Running in Cycle:        53100000, Inst:        84649078
2462026261000: system.switch_cpus: Raw Gem5 Running in Cycle:        53200000, Inst:        84827313
2462076261000: system.switch_cpus: Raw Gem5 Running in Cycle:        53300000, Inst:        85014461
2462126261000: system.switch_cpus: Raw Gem5 Running in Cycle:        53400000, Inst:        85194061
2462176261000: system.switch_cpus: Raw Gem5 Running in Cycle:        53500000, Inst:        85356200
2462226261000: system.switch_cpus: Raw Gem5 Running in Cycle:        53600000, Inst:        85492411
2462276261000: system.switch_cpus: Raw Gem5 Running in Cycle:        53700000, Inst:        85653840
2462326261000: system.switch_cpus: Raw Gem5 Running in Cycle:        53800000, Inst:        85790068
2462376261000: system.switch_cpus: Raw Gem5 Running in Cycle:        53900000, Inst:        85934483
2462426261000: system.switch_cpus: Raw Gem5 Running in Cycle:        54000000, Inst:        86112265
2462476261000: system.switch_cpus: Raw Gem5 Running in Cycle:        54100000, Inst:        86307477
2462526261000: system.switch_cpus: Raw Gem5 Running in Cycle:        54200000, Inst:        86484275
2462576261000: system.switch_cpus: Raw Gem5 Running in Cycle:        54300000, Inst:        86630548
2462626261000: system.switch_cpus: Raw Gem5 Running in Cycle:        54400000, Inst:        86766093
2462676261000: system.switch_cpus: Raw Gem5 Running in Cycle:        54500000, Inst:        86940650
2462726261000: system.switch_cpus: Raw Gem5 Running in Cycle:        54600000, Inst:        87125075
2462776261000: system.switch_cpus: Raw Gem5 Running in Cycle:        54700000, Inst:        87298167
2462826261000: system.switch_cpus: Raw Gem5 Running in Cycle:        54800000, Inst:        87474077
2462876261000: system.switch_cpus: Raw Gem5 Running in Cycle:        54900000, Inst:        87610012
2462926261000: system.switch_cpus: Raw Gem5 Running in Cycle:        55000000, Inst:        87767800
2462976261000: system.switch_cpus: Raw Gem5 Running in Cycle:        55100000, Inst:        87946858
2463026261000: system.switch_cpus: Raw Gem5 Running in Cycle:        55200000, Inst:        88132193
2463076261000: system.switch_cpus: Raw Gem5 Running in Cycle:        55300000, Inst:        88327621
2463126261000: system.switch_cpus: Raw Gem5 Running in Cycle:        55400000, Inst:        88513145
2463176261000: system.switch_cpus: Raw Gem5 Running in Cycle:        55500000, Inst:        88613412
2463226261000: system.switch_cpus: Raw Gem5 Running in Cycle:        55600000, Inst:        88747651
2463276261000: system.switch_cpus: Raw Gem5 Running in Cycle:        55700000, Inst:        88931203
2463326261000: system.switch_cpus: Raw Gem5 Running in Cycle:        55800000, Inst:        89035576
2463376261000: system.switch_cpus: Raw Gem5 Running in Cycle:        55900000, Inst:        89199575
2463426261000: system.switch_cpus: Raw Gem5 Running in Cycle:        56000000, Inst:        89390455
2463476261000: system.switch_cpus: Raw Gem5 Running in Cycle:        56100000, Inst:        89557918
2463526261000: system.switch_cpus: Raw Gem5 Running in Cycle:        56200000, Inst:        89654627
2463576261000: system.switch_cpus: Raw Gem5 Running in Cycle:        56300000, Inst:        89813345
2463626261000: system.switch_cpus: Raw Gem5 Running in Cycle:        56400000, Inst:        89958846
2463676261000: system.switch_cpus: Raw Gem5 Running in Cycle:        56500000, Inst:        90088611
2463726261000: system.switch_cpus: Raw Gem5 Running in Cycle:        56600000, Inst:        90268710
2463776261000: system.switch_cpus: Raw Gem5 Running in Cycle:        56700000, Inst:        90421230
2463826261000: system.switch_cpus: Raw Gem5 Running in Cycle:        56800000, Inst:        90551032
2463876261000: system.switch_cpus: Raw Gem5 Running in Cycle:        56900000, Inst:        90693861
2463926261000: system.switch_cpus: Raw Gem5 Running in Cycle:        57000000, Inst:        90829479
2463976261000: system.switch_cpus: Raw Gem5 Running in Cycle:        57100000, Inst:        90977653
2464026261000: system.switch_cpus: Raw Gem5 Running in Cycle:        57200000, Inst:        91148566
2464076261000: system.switch_cpus: Raw Gem5 Running in Cycle:        57300000, Inst:        91307330
2464126261000: system.switch_cpus: Raw Gem5 Running in Cycle:        57400000, Inst:        91435608
2464176261000: system.switch_cpus: Raw Gem5 Running in Cycle:        57500000, Inst:        91616222
2464226261000: system.switch_cpus: Raw Gem5 Running in Cycle:        57600000, Inst:        91764396
2464276261000: system.switch_cpus: Raw Gem5 Running in Cycle:        57700000, Inst:        91922900
2464326261000: system.switch_cpus: Raw Gem5 Running in Cycle:        57800000, Inst:        92092293
2464376261000: system.switch_cpus: Raw Gem5 Running in Cycle:        57900000, Inst:        92264497
2464426312000: system.switch_cpus: Raw Gem5 Running in Cycle:        58000000, Inst:        92422363
2464476312000: system.switch_cpus: Raw Gem5 Running in Cycle:        58100000, Inst:        92568069
2464526312000: system.switch_cpus: Raw Gem5 Running in Cycle:        58200000, Inst:        92724032
2464576312000: system.switch_cpus: Raw Gem5 Running in Cycle:        58300000, Inst:        92912017
2464626312000: system.switch_cpus: Raw Gem5 Running in Cycle:        58400000, Inst:        93097764
2464676312000: system.switch_cpus: Raw Gem5 Running in Cycle:        58500000, Inst:        93263587
2464726312000: system.switch_cpus: Raw Gem5 Running in Cycle:        58600000, Inst:        93394468
2464776312000: system.switch_cpus: Raw Gem5 Running in Cycle:        58700000, Inst:        93546452
2464826312000: system.switch_cpus: Raw Gem5 Running in Cycle:        58800000, Inst:        93712201
2464876312000: system.switch_cpus: Raw Gem5 Running in Cycle:        58900000, Inst:        93847576
2464926312000: system.switch_cpus: Raw Gem5 Running in Cycle:        59000000, Inst:        94001408
2464976312000: system.switch_cpus: Raw Gem5 Running in Cycle:        59100000, Inst:        94187955
2465026312000: system.switch_cpus: Raw Gem5 Running in Cycle:        59200000, Inst:        94366317
2465076312000: system.switch_cpus: Raw Gem5 Running in Cycle:        59300000, Inst:        94539277
2465126312000: system.switch_cpus: Raw Gem5 Running in Cycle:        59400000, Inst:        94668133
2465176312000: system.switch_cpus: Raw Gem5 Running in Cycle:        59500000, Inst:        94835355
2465226312000: system.switch_cpus: Raw Gem5 Running in Cycle:        59600000, Inst:        95015409
2465276312000: system.switch_cpus: Raw Gem5 Running in Cycle:        59700000, Inst:        95202942
2465326312000: system.switch_cpus: Raw Gem5 Running in Cycle:        59800000, Inst:        95375816
2465376312000: system.switch_cpus: Raw Gem5 Running in Cycle:        59900000, Inst:        95530978
2465426312000: system.switch_cpus: Raw Gem5 Running in Cycle:        60000000, Inst:        95663880
2465476312000: system.switch_cpus: Raw Gem5 Running in Cycle:        60100000, Inst:        95845643
2465526312000: system.switch_cpus: Raw Gem5 Running in Cycle:        60200000, Inst:        96020597
2465576312000: system.switch_cpus: Raw Gem5 Running in Cycle:        60300000, Inst:        96219181
2465626312000: system.switch_cpus: Raw Gem5 Running in Cycle:        60400000, Inst:        96412533
2465676312000: system.switch_cpus: Raw Gem5 Running in Cycle:        60500000, Inst:        96542745
2465726312000: system.switch_cpus: Raw Gem5 Running in Cycle:        60600000, Inst:        96700185
2465776312000: system.switch_cpus: Raw Gem5 Running in Cycle:        60700000, Inst:        96818900
2465826312000: system.switch_cpus: Raw Gem5 Running in Cycle:        60800000, Inst:        96958995
2465876312000: system.switch_cpus: Raw Gem5 Running in Cycle:        60900000, Inst:        97110826
2465926312000: system.switch_cpus: Raw Gem5 Running in Cycle:        61000000, Inst:        97288941
2465976312000: system.switch_cpus: Raw Gem5 Running in Cycle:        61100000, Inst:        97423460
2466026312000: system.switch_cpus: Raw Gem5 Running in Cycle:        61200000, Inst:        97578155
2466076312000: system.switch_cpus: Raw Gem5 Running in Cycle:        61300000, Inst:        97748410
2466126312000: system.switch_cpus: Raw Gem5 Running in Cycle:        61400000, Inst:        97919911
2466176312000: system.switch_cpus: Raw Gem5 Running in Cycle:        61500000, Inst:        98056155
2466226312000: system.switch_cpus: Raw Gem5 Running in Cycle:        61600000, Inst:        98233727
2466276312000: system.switch_cpus: Raw Gem5 Running in Cycle:        61700000, Inst:        98405199
2466326548500: system.switch_cpus: Raw Gem5 Running in Cycle:        61800000, Inst:        98538548
2466376548500: system.switch_cpus: Raw Gem5 Running in Cycle:        61900000, Inst:        98691671
2466426548500: system.switch_cpus: Raw Gem5 Running in Cycle:        62000000, Inst:        98870426
2466476548500: system.switch_cpus: Raw Gem5 Running in Cycle:        62100000, Inst:        99055363
2466526548500: system.switch_cpus: Raw Gem5 Running in Cycle:        62200000, Inst:        99235893
2466576548500: system.switch_cpus: Raw Gem5 Running in Cycle:        62300000, Inst:        99392596
2466626548500: system.switch_cpus: Raw Gem5 Running in Cycle:        62400000, Inst:        99532235
2466676548500: system.switch_cpus: Raw Gem5 Running in Cycle:        62500000, Inst:        99689915
2466726548500: system.switch_cpus: Raw Gem5 Running in Cycle:        62600000, Inst:        99824617
2466776548500: system.switch_cpus: Raw Gem5 Running in Cycle:        62700000, Inst:        99965743
Exiting @ tick 2466785105500 because a thread reached the max instruction count
end time:(year-mon-day hour-minute-second)19-03-30 20-57-05
