
---------- Begin Simulation Statistics ----------
final_tick                               2466785105500                       # Number of ticks from beginning of simulation (restored from checkpoints and never reset)
host_inst_rate                                 251331                       # Simulator instruction rate (inst/s)
host_mem_usage                                8542212                       # Number of bytes of host memory used
host_op_rate                                   251331                       # Simulator op (including micro ops) rate (op/s)
host_seconds                                   397.88                       # Real time elapsed on the host
host_tick_rate                               78847012                       # Simulator tick rate (ticks/s)
sim_freq                                 1000000000000                       # Frequency of simulated ticks
sim_insts                                   100000020                       # Number of instructions simulated
sim_ops                                     100000020                       # Number of ops (including micro ops) simulated
sim_seconds                                  0.031372                       # Number of seconds simulated
sim_ticks                                 31371744000                       # Number of ticks simulated
system.clk_domain.clock                          1000                       # Clock period in ticks
system.cpu.Branches                                 5                       # Number of branches fetched
system.cpu.committedInsts                          20                       # Number of instructions committed
system.cpu.committedOps                            20                       # Number of ops (including micro ops) committed
system.cpu.dcache.LoadLockedReq_accesses::.switch_cpus.data        91466                       # number of LoadLockedReq accesses(hits+misses)
system.cpu.dcache.LoadLockedReq_accesses::total        91466                       # number of LoadLockedReq accesses(hits+misses)
system.cpu.dcache.LoadLockedReq_avg_miss_latency::.switch_cpus.data 13138.930163                       # average LoadLockedReq miss latency
system.cpu.dcache.LoadLockedReq_avg_miss_latency::total 13138.930163                       # average LoadLockedReq miss latency
system.cpu.dcache.LoadLockedReq_avg_mshr_miss_latency::.switch_cpus.data 12138.930163                       # average LoadLockedReq mshr miss latency
system.cpu.dcache.LoadLockedReq_avg_mshr_miss_latency::total 12138.930163                       # average LoadLockedReq mshr miss latency
system.cpu.dcache.LoadLockedReq_hits::.switch_cpus.data        90793                       # number of LoadLockedReq hits
system.cpu.dcache.LoadLockedReq_hits::total        90793                       # number of LoadLockedReq hits
system.cpu.dcache.LoadLockedReq_miss_latency::.switch_cpus.data      8842500                       # number of LoadLockedReq miss cycles
system.cpu.dcache.LoadLockedReq_miss_latency::total      8842500                       # number of LoadLockedReq miss cycles
system.cpu.dcache.LoadLockedReq_miss_rate::.switch_cpus.data     0.007358                       # miss rate for LoadLockedReq accesses
system.cpu.dcache.LoadLockedReq_miss_rate::total     0.007358                       # miss rate for LoadLockedReq accesses
system.cpu.dcache.LoadLockedReq_misses::.switch_cpus.data          673                       # number of LoadLockedReq misses
system.cpu.dcache.LoadLockedReq_misses::total          673                       # number of LoadLockedReq misses
system.cpu.dcache.LoadLockedReq_mshr_miss_latency::.switch_cpus.data      8169500                       # number of LoadLockedReq MSHR miss cycles
system.cpu.dcache.LoadLockedReq_mshr_miss_latency::total      8169500                       # number of LoadLockedReq MSHR miss cycles
system.cpu.dcache.LoadLockedReq_mshr_miss_rate::.switch_cpus.data     0.007358                       # mshr miss rate for LoadLockedReq accesses
system.cpu.dcache.LoadLockedReq_mshr_miss_rate::total     0.007358                       # mshr miss rate for LoadLockedReq accesses
system.cpu.dcache.LoadLockedReq_mshr_misses::.switch_cpus.data          673                       # number of LoadLockedReq MSHR misses
system.cpu.dcache.LoadLockedReq_mshr_misses::total          673                       # number of LoadLockedReq MSHR misses
system.cpu.dcache.ReadReq_accesses::.cpu.data            4                       # number of ReadReq accesses(hits+misses)
system.cpu.dcache.ReadReq_accesses::.switch_cpus.data     24799268                       # number of ReadReq accesses(hits+misses)
system.cpu.dcache.ReadReq_accesses::total     24799272                       # number of ReadReq accesses(hits+misses)
system.cpu.dcache.ReadReq_avg_miss_latency::.switch_cpus.data 12835.335905                       # average ReadReq miss latency
system.cpu.dcache.ReadReq_avg_miss_latency::total 12835.324952                       # average ReadReq miss latency
system.cpu.dcache.ReadReq_avg_mshr_miss_latency::.switch_cpus.data 20342.896095                       # average ReadReq mshr miss latency
system.cpu.dcache.ReadReq_avg_mshr_miss_latency::total 20342.896095                       # average ReadReq mshr miss latency
system.cpu.dcache.ReadReq_hits::.cpu.data            2                       # number of ReadReq hits
system.cpu.dcache.ReadReq_hits::.switch_cpus.data     22455615                       # number of ReadReq hits
system.cpu.dcache.ReadReq_hits::total        22455617                       # number of ReadReq hits
system.cpu.dcache.ReadReq_miss_latency::.switch_cpus.data  30081573500                       # number of ReadReq miss cycles
system.cpu.dcache.ReadReq_miss_latency::total  30081573500                       # number of ReadReq miss cycles
system.cpu.dcache.ReadReq_miss_rate::.cpu.data     0.500000                       # miss rate for ReadReq accesses
system.cpu.dcache.ReadReq_miss_rate::.switch_cpus.data     0.094505                       # miss rate for ReadReq accesses
system.cpu.dcache.ReadReq_miss_rate::total     0.094505                       # miss rate for ReadReq accesses
system.cpu.dcache.ReadReq_misses::.cpu.data            2                       # number of ReadReq misses
system.cpu.dcache.ReadReq_misses::.switch_cpus.data      2343653                       # number of ReadReq misses
system.cpu.dcache.ReadReq_misses::total       2343655                       # number of ReadReq misses
system.cpu.dcache.ReadReq_mshr_hits::.switch_cpus.data      1865043                       # number of ReadReq MSHR hits
system.cpu.dcache.ReadReq_mshr_hits::total      1865043                       # number of ReadReq MSHR hits
system.cpu.dcache.ReadReq_mshr_miss_latency::.switch_cpus.data   9736313500                       # number of ReadReq MSHR miss cycles
system.cpu.dcache.ReadReq_mshr_miss_latency::total   9736313500                       # number of ReadReq MSHR miss cycles
system.cpu.dcache.ReadReq_mshr_miss_rate::.switch_cpus.data     0.019299                       # mshr miss rate for ReadReq accesses
system.cpu.dcache.ReadReq_mshr_miss_rate::total     0.019299                       # mshr miss rate for ReadReq accesses
system.cpu.dcache.ReadReq_mshr_misses::.switch_cpus.data       478610                       # number of ReadReq MSHR misses
system.cpu.dcache.ReadReq_mshr_misses::total       478610                       # number of ReadReq MSHR misses
system.cpu.dcache.StoreCondReq_accesses::.switch_cpus.data        89900                       # number of StoreCondReq accesses(hits+misses)
system.cpu.dcache.StoreCondReq_accesses::total        89900                       # number of StoreCondReq accesses(hits+misses)
system.cpu.dcache.StoreCondReq_hits::.switch_cpus.data        89900                       # number of StoreCondReq hits
system.cpu.dcache.StoreCondReq_hits::total        89900                       # number of StoreCondReq hits
system.cpu.dcache.WriteReq_accesses::.switch_cpus.data      2073728                       # number of WriteReq accesses(hits+misses)
system.cpu.dcache.WriteReq_accesses::total      2073728                       # number of WriteReq accesses(hits+misses)
system.cpu.dcache.WriteReq_avg_miss_latency::.switch_cpus.data 39266.868494                       # average WriteReq miss latency
system.cpu.dcache.WriteReq_avg_miss_latency::total 39266.868494                       # average WriteReq miss latency
system.cpu.dcache.WriteReq_avg_mshr_miss_latency::.switch_cpus.data 46645.192937                       # average WriteReq mshr miss latency
system.cpu.dcache.WriteReq_avg_mshr_miss_latency::total 46645.192937                       # average WriteReq mshr miss latency
system.cpu.dcache.WriteReq_hits::.switch_cpus.data      2022658                       # number of WriteReq hits
system.cpu.dcache.WriteReq_hits::total        2022658                       # number of WriteReq hits
system.cpu.dcache.WriteReq_miss_latency::.switch_cpus.data   2005358974                       # number of WriteReq miss cycles
system.cpu.dcache.WriteReq_miss_latency::total   2005358974                       # number of WriteReq miss cycles
system.cpu.dcache.WriteReq_miss_rate::.switch_cpus.data     0.024627                       # miss rate for WriteReq accesses
system.cpu.dcache.WriteReq_miss_rate::total     0.024627                       # miss rate for WriteReq accesses
system.cpu.dcache.WriteReq_misses::.switch_cpus.data        51070                       # number of WriteReq misses
system.cpu.dcache.WriteReq_misses::total        51070                       # number of WriteReq misses
system.cpu.dcache.WriteReq_mshr_hits::.switch_cpus.data        31193                       # number of WriteReq MSHR hits
system.cpu.dcache.WriteReq_mshr_hits::total        31193                       # number of WriteReq MSHR hits
system.cpu.dcache.WriteReq_mshr_miss_latency::.switch_cpus.data    927166500                       # number of WriteReq MSHR miss cycles
system.cpu.dcache.WriteReq_mshr_miss_latency::total    927166500                       # number of WriteReq MSHR miss cycles
system.cpu.dcache.WriteReq_mshr_miss_rate::.switch_cpus.data     0.009585                       # mshr miss rate for WriteReq accesses
system.cpu.dcache.WriteReq_mshr_miss_rate::total     0.009585                       # mshr miss rate for WriteReq accesses
system.cpu.dcache.WriteReq_mshr_misses::.switch_cpus.data        19877                       # number of WriteReq MSHR misses
system.cpu.dcache.WriteReq_mshr_misses::total        19877                       # number of WriteReq MSHR misses
system.cpu.dcache.avg_blocked_cycles::no_mshrs     8.160962                       # average number of cycles each access was blocked
system.cpu.dcache.avg_blocked_cycles::no_targets          455                       # average number of cycles each access was blocked
system.cpu.dcache.blocked::no_mshrs              5989                       # number of cycles access was blocked
system.cpu.dcache.blocked::no_targets               3                       # number of cycles access was blocked
system.cpu.dcache.blocked_cycles::no_mshrs        48876                       # number of cycles access was blocked
system.cpu.dcache.blocked_cycles::no_targets         1365                       # number of cycles access was blocked
system.cpu.dcache.demand_accesses::.cpu.data            4                       # number of demand (read+write) accesses
system.cpu.dcache.demand_accesses::.switch_cpus.data     26872996                       # number of demand (read+write) accesses
system.cpu.dcache.demand_accesses::total     26873000                       # number of demand (read+write) accesses
system.cpu.dcache.demand_avg_miss_latency::.switch_cpus.data 13399.016285                       # average overall miss latency
system.cpu.dcache.demand_avg_miss_latency::total 13399.005094                       # average overall miss latency
system.cpu.dcache.demand_avg_mshr_miss_latency::.switch_cpus.data 21391.691258                       # average overall mshr miss latency
system.cpu.dcache.demand_avg_mshr_miss_latency::total 21391.691258                       # average overall mshr miss latency
system.cpu.dcache.demand_hits::.cpu.data            2                       # number of demand (read+write) hits
system.cpu.dcache.demand_hits::.switch_cpus.data     24478273                       # number of demand (read+write) hits
system.cpu.dcache.demand_hits::total         24478275                       # number of demand (read+write) hits
system.cpu.dcache.demand_miss_latency::.switch_cpus.data  32086932474                       # number of demand (read+write) miss cycles
system.cpu.dcache.demand_miss_latency::total  32086932474                       # number of demand (read+write) miss cycles
system.cpu.dcache.demand_miss_rate::.cpu.data     0.500000                       # miss rate for demand accesses
system.cpu.dcache.demand_miss_rate::.switch_cpus.data     0.089113                       # miss rate for demand accesses
system.cpu.dcache.demand_miss_rate::total     0.089113                       # miss rate for demand accesses
system.cpu.dcache.demand_misses::.cpu.data            2                       # number of demand (read+write) misses
system.cpu.dcache.demand_misses::.switch_cpus.data      2394723                       # number of demand (read+write) misses
system.cpu.dcache.demand_misses::total        2394725                       # number of demand (read+write) misses
system.cpu.dcache.demand_mshr_hits::.switch_cpus.data      1896236                       # number of demand (read+write) MSHR hits
system.cpu.dcache.demand_mshr_hits::total      1896236                       # number of demand (read+write) MSHR hits
system.cpu.dcache.demand_mshr_miss_latency::.switch_cpus.data  10663480000                       # number of demand (read+write) MSHR miss cycles
system.cpu.dcache.demand_mshr_miss_latency::total  10663480000                       # number of demand (read+write) MSHR miss cycles
system.cpu.dcache.demand_mshr_miss_rate::.switch_cpus.data     0.018550                       # mshr miss rate for demand accesses
system.cpu.dcache.demand_mshr_miss_rate::total     0.018550                       # mshr miss rate for demand accesses
system.cpu.dcache.demand_mshr_misses::.switch_cpus.data       498487                       # number of demand (read+write) MSHR misses
system.cpu.dcache.demand_mshr_misses::total       498487                       # number of demand (read+write) MSHR misses
system.cpu.dcache.overall_accesses::.cpu.data            4                       # number of overall (read+write) accesses
system.cpu.dcache.overall_accesses::.switch_cpus.data     26872996                       # number of overall (read+write) accesses
system.cpu.dcache.overall_accesses::total     26873000                       # number of overall (read+write) accesses
system.cpu.dcache.overall_avg_miss_latency::.switch_cpus.data 13399.016285                       # average overall miss latency
system.cpu.dcache.overall_avg_miss_latency::total 13399.005094                       # average overall miss latency
system.cpu.dcache.overall_avg_mshr_miss_latency::.switch_cpus.data 21391.691258                       # average overall mshr miss latency
system.cpu.dcache.overall_avg_mshr_miss_latency::total 21391.691258                       # average overall mshr miss latency
system.cpu.dcache.overall_hits::.cpu.data            2                       # number of overall hits
system.cpu.dcache.overall_hits::.switch_cpus.data     24478273                       # number of overall hits
system.cpu.dcache.overall_hits::total        24478275                       # number of overall hits
system.cpu.dcache.overall_miss_latency::.switch_cpus.data  32086932474                       # number of overall miss cycles
system.cpu.dcache.overall_miss_latency::total  32086932474                       # number of overall miss cycles
system.cpu.dcache.overall_miss_rate::.cpu.data     0.500000                       # miss rate for overall accesses
system.cpu.dcache.overall_miss_rate::.switch_cpus.data     0.089113                       # miss rate for overall accesses
system.cpu.dcache.overall_miss_rate::total     0.089113                       # miss rate for overall accesses
system.cpu.dcache.overall_misses::.cpu.data            2                       # number of overall misses
system.cpu.dcache.overall_misses::.switch_cpus.data      2394723                       # number of overall misses
system.cpu.dcache.overall_misses::total       2394725                       # number of overall misses
system.cpu.dcache.overall_mshr_hits::.switch_cpus.data      1896236                       # number of overall MSHR hits
system.cpu.dcache.overall_mshr_hits::total      1896236                       # number of overall MSHR hits
system.cpu.dcache.overall_mshr_miss_latency::.switch_cpus.data  10663480000                       # number of overall MSHR miss cycles
system.cpu.dcache.overall_mshr_miss_latency::total  10663480000                       # number of overall MSHR miss cycles
system.cpu.dcache.overall_mshr_miss_rate::.switch_cpus.data     0.018550                       # mshr miss rate for overall accesses
system.cpu.dcache.overall_mshr_miss_rate::total     0.018550                       # mshr miss rate for overall accesses
system.cpu.dcache.overall_mshr_misses::.switch_cpus.data       498487                       # number of overall MSHR misses
system.cpu.dcache.overall_mshr_misses::total       498487                       # number of overall MSHR misses
system.cpu.dcache.pwrStateResidencyTicks::UNDEFINED 2466785105500                       # Cumulative time (in ticks) in various power states
system.cpu.dcache.replacements                 498650                       # number of replacements
system.cpu.dcache.tags.age_task_id_blocks_1024::0          313                       # Occupied blocks per task id
system.cpu.dcache.tags.age_task_id_blocks_1024::1          198                       # Occupied blocks per task id
system.cpu.dcache.tags.age_task_id_blocks_1024::4            1                       # Occupied blocks per task id
system.cpu.dcache.tags.avg_refs             50.400732                       # Average number of references to valid blocks.
system.cpu.dcache.tags.data_accesses        216934090                       # Number of data accesses
system.cpu.dcache.tags.occ_blocks::.cpu.data     0.225235                       # Average occupied blocks per requestor
system.cpu.dcache.tags.occ_blocks::.switch_cpus.data   511.525125                       # Average occupied blocks per requestor
system.cpu.dcache.tags.occ_percent::.cpu.data     0.000440                       # Average percentage of cache occupancy
system.cpu.dcache.tags.occ_percent::.switch_cpus.data     0.999073                       # Average percentage of cache occupancy
system.cpu.dcache.tags.occ_percent::total     0.999512                       # Average percentage of cache occupancy
system.cpu.dcache.tags.occ_task_id_blocks::1024          512                       # Occupied blocks per task id
system.cpu.dcache.tags.occ_task_id_percent::1024            1                       # Percentage of cache occupancy per task id
system.cpu.dcache.tags.pwrStateResidencyTicks::UNDEFINED 2466785105500                       # Cumulative time (in ticks) in various power states
system.cpu.dcache.tags.sampled_refs            499162                       # Sample count of references to valid blocks.
system.cpu.dcache.tags.tag_accesses         216934090                       # Number of tag accesses
system.cpu.dcache.tags.tagsinuse           511.750359                       # Cycle average of tags in use
system.cpu.dcache.tags.total_refs            25158130                       # Total number of references to valid blocks.
system.cpu.dcache.tags.warmup_cycle      2435413364000                       # Cycle when the warmup percentage was hit.
system.cpu.dcache.writebacks::.writebacks        77564                       # number of writebacks
system.cpu.dcache.writebacks::total             77564                       # number of writebacks
system.cpu.dtb.data_accesses                        4                       # DTB accesses
system.cpu.dtb.data_acv                             0                       # DTB access violations
system.cpu.dtb.data_hits                            4                       # DTB hits
system.cpu.dtb.data_misses                          0                       # DTB misses
system.cpu.dtb.fetch_accesses                       0                       # ITB accesses
system.cpu.dtb.fetch_acv                            0                       # ITB acv
system.cpu.dtb.fetch_hits                           0                       # ITB hits
system.cpu.dtb.fetch_misses                         0                       # ITB misses
system.cpu.dtb.pwrStateResidencyTicks::UNDEFINED 2466785105500                       # Cumulative time (in ticks) in various power states
system.cpu.dtb.read_accesses                        4                       # DTB read accesses
system.cpu.dtb.read_acv                             0                       # DTB read access violations
system.cpu.dtb.read_hits                            4                       # DTB read hits
system.cpu.dtb.read_misses                          0                       # DTB read misses
system.cpu.dtb.write_accesses                       0                       # DTB write accesses
system.cpu.dtb.write_acv                            0                       # DTB write access violations
system.cpu.dtb.write_hits                           0                       # DTB write hits
system.cpu.dtb.write_misses                         0                       # DTB write misses
system.cpu.icache.ReadReq_accesses::.cpu.inst           20                       # number of ReadReq accesses(hits+misses)
system.cpu.icache.ReadReq_accesses::.switch_cpus.inst     24488009                       # number of ReadReq accesses(hits+misses)
system.cpu.icache.ReadReq_accesses::total     24488029                       # number of ReadReq accesses(hits+misses)
system.cpu.icache.ReadReq_avg_miss_latency::.switch_cpus.inst 92906.649616                       # average ReadReq miss latency
system.cpu.icache.ReadReq_avg_miss_latency::total 92433.842239                       # average ReadReq miss latency
system.cpu.icache.ReadReq_avg_mshr_miss_latency::.switch_cpus.inst 98070.422535                       # average ReadReq mshr miss latency
system.cpu.icache.ReadReq_avg_mshr_miss_latency::total 98070.422535                       # average ReadReq mshr miss latency
system.cpu.icache.ReadReq_hits::.cpu.inst           18                       # number of ReadReq hits
system.cpu.icache.ReadReq_hits::.switch_cpus.inst     24487618                       # number of ReadReq hits
system.cpu.icache.ReadReq_hits::total        24487636                       # number of ReadReq hits
system.cpu.icache.ReadReq_miss_latency::.switch_cpus.inst     36326500                       # number of ReadReq miss cycles
system.cpu.icache.ReadReq_miss_latency::total     36326500                       # number of ReadReq miss cycles
system.cpu.icache.ReadReq_miss_rate::.cpu.inst     0.100000                       # miss rate for ReadReq accesses
system.cpu.icache.ReadReq_miss_rate::.switch_cpus.inst     0.000016                       # miss rate for ReadReq accesses
system.cpu.icache.ReadReq_miss_rate::total     0.000016                       # miss rate for ReadReq accesses
system.cpu.icache.ReadReq_misses::.cpu.inst            2                       # number of ReadReq misses
system.cpu.icache.ReadReq_misses::.switch_cpus.inst          391                       # number of ReadReq misses
system.cpu.icache.ReadReq_misses::total           393                       # number of ReadReq misses
system.cpu.icache.ReadReq_mshr_hits::.switch_cpus.inst          107                       # number of ReadReq MSHR hits
system.cpu.icache.ReadReq_mshr_hits::total          107                       # number of ReadReq MSHR hits
system.cpu.icache.ReadReq_mshr_miss_latency::.switch_cpus.inst     27852000                       # number of ReadReq MSHR miss cycles
system.cpu.icache.ReadReq_mshr_miss_latency::total     27852000                       # number of ReadReq MSHR miss cycles
system.cpu.icache.ReadReq_mshr_miss_rate::.switch_cpus.inst     0.000012                       # mshr miss rate for ReadReq accesses
system.cpu.icache.ReadReq_mshr_miss_rate::total     0.000012                       # mshr miss rate for ReadReq accesses
system.cpu.icache.ReadReq_mshr_misses::.switch_cpus.inst          284                       # number of ReadReq MSHR misses
system.cpu.icache.ReadReq_mshr_misses::total          284                       # number of ReadReq MSHR misses
system.cpu.icache.avg_blocked_cycles::no_mshrs          nan                       # average number of cycles each access was blocked
system.cpu.icache.avg_blocked_cycles::no_targets          nan                       # average number of cycles each access was blocked
system.cpu.icache.blocked::no_mshrs                 0                       # number of cycles access was blocked
system.cpu.icache.blocked::no_targets               0                       # number of cycles access was blocked
system.cpu.icache.blocked_cycles::no_mshrs            0                       # number of cycles access was blocked
system.cpu.icache.blocked_cycles::no_targets            0                       # number of cycles access was blocked
system.cpu.icache.demand_accesses::.cpu.inst           20                       # number of demand (read+write) accesses
system.cpu.icache.demand_accesses::.switch_cpus.inst     24488009                       # number of demand (read+write) accesses
system.cpu.icache.demand_accesses::total     24488029                       # number of demand (read+write) accesses
system.cpu.icache.demand_avg_miss_latency::.switch_cpus.inst 92906.649616                       # average overall miss latency
system.cpu.icache.demand_avg_miss_latency::total 92433.842239                       # average overall miss latency
system.cpu.icache.demand_avg_mshr_miss_latency::.switch_cpus.inst 98070.422535                       # average overall mshr miss latency
system.cpu.icache.demand_avg_mshr_miss_latency::total 98070.422535                       # average overall mshr miss latency
system.cpu.icache.demand_hits::.cpu.inst           18                       # number of demand (read+write) hits
system.cpu.icache.demand_hits::.switch_cpus.inst     24487618                       # number of demand (read+write) hits
system.cpu.icache.demand_hits::total         24487636                       # number of demand (read+write) hits
system.cpu.icache.demand_miss_latency::.switch_cpus.inst     36326500                       # number of demand (read+write) miss cycles
system.cpu.icache.demand_miss_latency::total     36326500                       # number of demand (read+write) miss cycles
system.cpu.icache.demand_miss_rate::.cpu.inst     0.100000                       # miss rate for demand accesses
system.cpu.icache.demand_miss_rate::.switch_cpus.inst     0.000016                       # miss rate for demand accesses
system.cpu.icache.demand_miss_rate::total     0.000016                       # miss rate for demand accesses
system.cpu.icache.demand_misses::.cpu.inst            2                       # number of demand (read+write) misses
system.cpu.icache.demand_misses::.switch_cpus.inst          391                       # number of demand (read+write) misses
system.cpu.icache.demand_misses::total            393                       # number of demand (read+write) misses
system.cpu.icache.demand_mshr_hits::.switch_cpus.inst          107                       # number of demand (read+write) MSHR hits
system.cpu.icache.demand_mshr_hits::total          107                       # number of demand (read+write) MSHR hits
system.cpu.icache.demand_mshr_miss_latency::.switch_cpus.inst     27852000                       # number of demand (read+write) MSHR miss cycles
system.cpu.icache.demand_mshr_miss_latency::total     27852000                       # number of demand (read+write) MSHR miss cycles
system.cpu.icache.demand_mshr_miss_rate::.switch_cpus.inst     0.000012                       # mshr miss rate for demand accesses
system.cpu.icache.demand_mshr_miss_rate::total     0.000012                       # mshr miss rate for demand accesses
system.cpu.icache.demand_mshr_misses::.switch_cpus.inst          284                       # number of demand (read+write) MSHR misses
system.cpu.icache.demand_mshr_misses::total          284                       # number of demand (read+write) MSHR misses
system.cpu.icache.overall_accesses::.cpu.inst           20                       # number of overall (read+write) accesses
system.cpu.icache.overall_accesses::.switch_cpus.inst     24488009                       # number of overall (read+write) accesses
system.cpu.icache.overall_accesses::total     24488029                       # number of overall (read+write) accesses
system.cpu.icache.overall_avg_miss_latency::.switch_cpus.inst 92906.649616                       # average overall miss latency
system.cpu.icache.overall_avg_miss_latency::total 92433.842239                       # average overall miss latency
system.cpu.icache.overall_avg_mshr_miss_latency::.switch_cpus.inst 98070.422535                       # average overall mshr miss latency
system.cpu.icache.overall_avg_mshr_miss_latency::total 98070.422535                       # average overall mshr miss latency
system.cpu.icache.overall_hits::.cpu.inst           18                       # number of overall hits
system.cpu.icache.overall_hits::.switch_cpus.inst     24487618                       # number of overall hits
system.cpu.icache.overall_hits::total        24487636                       # number of overall hits
system.cpu.icache.overall_miss_latency::.switch_cpus.inst     36326500                       # number of overall miss cycles
system.cpu.icache.overall_miss_latency::total     36326500                       # number of overall miss cycles
system.cpu.icache.overall_miss_rate::.cpu.inst     0.100000                       # miss rate for overall accesses
system.cpu.icache.overall_miss_rate::.switch_cpus.inst     0.000016                       # miss rate for overall accesses
system.cpu.icache.overall_miss_rate::total     0.000016                       # miss rate for overall accesses
system.cpu.icache.overall_misses::.cpu.inst            2                       # number of overall misses
system.cpu.icache.overall_misses::.switch_cpus.inst          391                       # number of overall misses
system.cpu.icache.overall_misses::total           393                       # number of overall misses
system.cpu.icache.overall_mshr_hits::.switch_cpus.inst          107                       # number of overall MSHR hits
system.cpu.icache.overall_mshr_hits::total          107                       # number of overall MSHR hits
system.cpu.icache.overall_mshr_miss_latency::.switch_cpus.inst     27852000                       # number of overall MSHR miss cycles
system.cpu.icache.overall_mshr_miss_latency::total     27852000                       # number of overall MSHR miss cycles
system.cpu.icache.overall_mshr_miss_rate::.switch_cpus.inst     0.000012                       # mshr miss rate for overall accesses
system.cpu.icache.overall_mshr_miss_rate::total     0.000012                       # mshr miss rate for overall accesses
system.cpu.icache.overall_mshr_misses::.switch_cpus.inst          284                       # number of overall MSHR misses
system.cpu.icache.overall_mshr_misses::total          284                       # number of overall MSHR misses
system.cpu.icache.pwrStateResidencyTicks::UNDEFINED 2466785105500                       # Cumulative time (in ticks) in various power states
system.cpu.icache.replacements                      1                       # number of replacements
system.cpu.icache.tags.age_task_id_blocks_1024::2            2                       # Occupied blocks per task id
system.cpu.icache.tags.age_task_id_blocks_1024::3            2                       # Occupied blocks per task id
system.cpu.icache.tags.age_task_id_blocks_1024::4          281                       # Occupied blocks per task id
system.cpu.icache.tags.avg_refs          85622.104895                       # Average number of references to valid blocks.
system.cpu.icache.tags.data_accesses        195904518                       # Number of data accesses
system.cpu.icache.tags.occ_blocks::.cpu.inst     2.000000                       # Average occupied blocks per requestor
system.cpu.icache.tags.occ_blocks::.switch_cpus.inst   254.684521                       # Average occupied blocks per requestor
system.cpu.icache.tags.occ_percent::.cpu.inst     0.003906                       # Average percentage of cache occupancy
system.cpu.icache.tags.occ_percent::.switch_cpus.inst     0.497431                       # Average percentage of cache occupancy
system.cpu.icache.tags.occ_percent::total     0.501337                       # Average percentage of cache occupancy
system.cpu.icache.tags.occ_task_id_blocks::1024          285                       # Occupied blocks per task id
system.cpu.icache.tags.occ_task_id_percent::1024     0.556641                       # Percentage of cache occupancy per task id
system.cpu.icache.tags.pwrStateResidencyTicks::UNDEFINED 2466785105500                       # Cumulative time (in ticks) in various power states
system.cpu.icache.tags.sampled_refs               286                       # Sample count of references to valid blocks.
system.cpu.icache.tags.tag_accesses         195904518                       # Number of tag accesses
system.cpu.icache.tags.tagsinuse           256.684521                       # Cycle average of tags in use
system.cpu.icache.tags.total_refs            24487922                       # Total number of references to valid blocks.
system.cpu.icache.tags.warmup_cycle      2435413362000                       # Cycle when the warmup percentage was hit.
system.cpu.icache.writebacks::.writebacks            1                       # number of writebacks
system.cpu.icache.writebacks::total                 1                       # number of writebacks
system.cpu.idle_fraction                            0                       # Percentage of idle cycles
system.cpu.itb.data_accesses                        0                       # DTB accesses
system.cpu.itb.data_acv                             0                       # DTB access violations
system.cpu.itb.data_hits                            0                       # DTB hits
system.cpu.itb.data_misses                          0                       # DTB misses
system.cpu.itb.fetch_accesses                      20                       # ITB accesses
system.cpu.itb.fetch_acv                            0                       # ITB acv
system.cpu.itb.fetch_hits                          20                       # ITB hits
system.cpu.itb.fetch_misses                         0                       # ITB misses
system.cpu.itb.pwrStateResidencyTicks::UNDEFINED 2466785105500                       # Cumulative time (in ticks) in various power states
system.cpu.itb.read_accesses                        0                       # DTB read accesses
system.cpu.itb.read_acv                             0                       # DTB read access violations
system.cpu.itb.read_hits                            0                       # DTB read hits
system.cpu.itb.read_misses                          0                       # DTB read misses
system.cpu.itb.write_accesses                       0                       # DTB write accesses
system.cpu.itb.write_acv                            0                       # DTB write access violations
system.cpu.itb.write_hits                           0                       # DTB write hits
system.cpu.itb.write_misses                         0                       # DTB write misses
system.cpu.not_idle_fraction                        1                       # Percentage of non-idle cycles
system.cpu.numCycles                               20                       # number of cpu cycles simulated
system.cpu.numPwrStateTransitions                   1                       # Number of power state transitions
system.cpu.numWorkItemsCompleted                    0                       # number of work items this cpu completed
system.cpu.numWorkItemsStarted                      0                       # number of work items this cpu started
system.cpu.num_busy_cycles                         20                       # Number of busy cycles
system.cpu.num_conditional_control_insts            5                       # number of instructions that are conditional controls
system.cpu.num_fp_alu_accesses                      0                       # Number of float alu accesses
system.cpu.num_fp_insts                             0                       # number of float instructions
system.cpu.num_fp_register_reads                    0                       # number of times the floating registers were read
system.cpu.num_fp_register_writes                   0                       # number of times the floating registers were written
system.cpu.num_func_calls                           0                       # number of times a function call or return occured
system.cpu.num_idle_cycles                          0                       # Number of idle cycles
system.cpu.num_int_alu_accesses                    20                       # Number of integer alu accesses
system.cpu.num_int_insts                           20                       # number of integer instructions
system.cpu.num_int_register_reads                  25                       # number of times the integer registers were read
system.cpu.num_int_register_writes                 15                       # number of times the integer registers were written
system.cpu.num_load_insts                           4                       # Number of load instructions
system.cpu.num_mem_refs                             4                       # number of memory refs
system.cpu.num_store_insts                          0                       # Number of store instructions
system.cpu.num_vec_alu_accesses                     0                       # Number of vector alu accesses
system.cpu.num_vec_insts                            0                       # number of vector instructions
system.cpu.num_vec_register_reads                   0                       # number of times the vector registers were read
system.cpu.num_vec_register_writes                  0                       # number of times the vector registers were written
system.cpu.op_class::No_OpClass                     0      0.00%      0.00% # Class of executed instruction
system.cpu.op_class::IntAlu                        16     80.00%     80.00% # Class of executed instruction
system.cpu.op_class::IntMult                        0      0.00%     80.00% # Class of executed instruction
system.cpu.op_class::IntDiv                         0      0.00%     80.00% # Class of executed instruction
system.cpu.op_class::FloatAdd                       0      0.00%     80.00% # Class of executed instruction
system.cpu.op_class::FloatCmp                       0      0.00%     80.00% # Class of executed instruction
system.cpu.op_class::FloatCvt                       0      0.00%     80.00% # Class of executed instruction
system.cpu.op_class::FloatMult                      0      0.00%     80.00% # Class of executed instruction
system.cpu.op_class::FloatMultAcc                   0      0.00%     80.00% # Class of executed instruction
system.cpu.op_class::FloatDiv                       0      0.00%     80.00% # Class of executed instruction
system.cpu.op_class::FloatMisc                      0      0.00%     80.00% # Class of executed instruction
system.cpu.op_class::FloatSqrt                      0      0.00%     80.00% # Class of executed instruction
system.cpu.op_class::SimdAdd                        0      0.00%     80.00% # Class of executed instruction
system.cpu.op_class::SimdAddAcc                     0      0.00%     80.00% # Class of executed instruction
system.cpu.op_class::SimdAlu                        0      0.00%     80.00% # Class of executed instruction
system.cpu.op_class::SimdCmp                        0      0.00%     80.00% # Class of executed instruction
system.cpu.op_class::SimdCvt                        0      0.00%     80.00% # Class of executed instruction
system.cpu.op_class::SimdMisc                       0      0.00%     80.00% # Class of executed instruction
system.cpu.op_class::SimdMult                       0      0.00%     80.00% # Class of executed instruction
system.cpu.op_class::SimdMultAcc                    0      0.00%     80.00% # Class of executed instruction
system.cpu.op_class::SimdShift                      0      0.00%     80.00% # Class of executed instruction
system.cpu.op_class::SimdShiftAcc                   0      0.00%     80.00% # Class of executed instruction
system.cpu.op_class::SimdSqrt                       0      0.00%     80.00% # Class of executed instruction
system.cpu.op_class::SimdFloatAdd                   0      0.00%     80.00% # Class of executed instruction
system.cpu.op_class::SimdFloatAlu                   0      0.00%     80.00% # Class of executed instruction
system.cpu.op_class::SimdFloatCmp                   0      0.00%     80.00% # Class of executed instruction
system.cpu.op_class::SimdFloatCvt                   0      0.00%     80.00% # Class of executed instruction
system.cpu.op_class::SimdFloatDiv                   0      0.00%     80.00% # Class of executed instruction
system.cpu.op_class::SimdFloatMisc                  0      0.00%     80.00% # Class of executed instruction
system.cpu.op_class::SimdFloatMult                  0      0.00%     80.00% # Class of executed instruction
system.cpu.op_class::SimdFloatMultAcc               0      0.00%     80.00% # Class of executed instruction
system.cpu.op_class::SimdFloatSqrt                  0      0.00%     80.00% # Class of executed instruction
system.cpu.op_class::SimdAes                        0      0.00%     80.00% # Class of executed instruction
system.cpu.op_class::SimdAesMix                     0      0.00%     80.00% # Class of executed instruction
system.cpu.op_class::SimdSha1Hash                   0      0.00%     80.00% # Class of executed instruction
system.cpu.op_class::SimdSha1Hash2                  0      0.00%     80.00% # Class of executed instruction
system.cpu.op_class::SimdSha256Hash                 0      0.00%     80.00% # Class of executed instruction
system.cpu.op_class::SimdSha256Hash2                0      0.00%     80.00% # Class of executed instruction
system.cpu.op_class::SimdShaSigma2                  0      0.00%     80.00% # Class of executed instruction
system.cpu.op_class::SimdShaSigma3                  0      0.00%     80.00% # Class of executed instruction
system.cpu.op_class::MemRead                        4     20.00%    100.00% # Class of executed instruction
system.cpu.op_class::MemWrite                       0      0.00%    100.00% # Class of executed instruction
system.cpu.op_class::FloatMemRead                   0      0.00%    100.00% # Class of executed instruction
system.cpu.op_class::FloatMemWrite                  0      0.00%    100.00% # Class of executed instruction
system.cpu.op_class::IprAccess                      0      0.00%    100.00% # Class of executed instruction
system.cpu.op_class::InstPrefetch                   0      0.00%    100.00% # Class of executed instruction
system.cpu.op_class::total                         20                       # Class of executed instruction
system.cpu.pwrStateResidencyTicks::ON           10000                       # Cumulative time (in ticks) in various power states
system.cpu.pwrStateResidencyTicks::OFF    31371734000                       # Cumulative time (in ticks) in various power states
system.cpu.workload.numSyscalls                     2                       # Number of system calls
system.cpu_clk_domain.clock                       500                       # Clock period in ticks
system.cpu_voltage_domain.voltage                   1                       # Voltage in Volts
system.l2.InvalidateReq_accesses::.switch_cpus.data          425                       # number of InvalidateReq accesses(hits+misses)
system.l2.InvalidateReq_accesses::total           425                       # number of InvalidateReq accesses(hits+misses)
system.l2.InvalidateReq_hits::.switch_cpus.data          425                       # number of InvalidateReq hits
system.l2.InvalidateReq_hits::total               425                       # number of InvalidateReq hits
system.l2.ReadCleanReq_accesses::.cpu.inst            2                       # number of ReadCleanReq accesses(hits+misses)
system.l2.ReadCleanReq_accesses::.switch_cpus.inst          284                       # number of ReadCleanReq accesses(hits+misses)
system.l2.ReadCleanReq_accesses::total            286                       # number of ReadCleanReq accesses(hits+misses)
system.l2.ReadCleanReq_avg_miss_latency::.switch_cpus.inst 96561.619718                       # average ReadCleanReq miss latency
system.l2.ReadCleanReq_avg_miss_latency::total 95886.363636                       # average ReadCleanReq miss latency
system.l2.ReadCleanReq_avg_mshr_miss_latency::.switch_cpus.inst 86561.619718                       # average ReadCleanReq mshr miss latency
system.l2.ReadCleanReq_avg_mshr_miss_latency::total 86561.619718                       # average ReadCleanReq mshr miss latency
system.l2.ReadCleanReq_miss_latency::.switch_cpus.inst     27423500                       # number of ReadCleanReq miss cycles
system.l2.ReadCleanReq_miss_latency::total     27423500                       # number of ReadCleanReq miss cycles
system.l2.ReadCleanReq_miss_rate::.cpu.inst            1                       # miss rate for ReadCleanReq accesses
system.l2.ReadCleanReq_miss_rate::.switch_cpus.inst            1                       # miss rate for ReadCleanReq accesses
system.l2.ReadCleanReq_miss_rate::total             1                       # miss rate for ReadCleanReq accesses
system.l2.ReadCleanReq_misses::.cpu.inst            2                       # number of ReadCleanReq misses
system.l2.ReadCleanReq_misses::.switch_cpus.inst          284                       # number of ReadCleanReq misses
system.l2.ReadCleanReq_misses::total              286                       # number of ReadCleanReq misses
system.l2.ReadCleanReq_mshr_miss_latency::.switch_cpus.inst     24583500                       # number of ReadCleanReq MSHR miss cycles
system.l2.ReadCleanReq_mshr_miss_latency::total     24583500                       # number of ReadCleanReq MSHR miss cycles
system.l2.ReadCleanReq_mshr_miss_rate::.switch_cpus.inst            1                       # mshr miss rate for ReadCleanReq accesses
system.l2.ReadCleanReq_mshr_miss_rate::total     0.993007                       # mshr miss rate for ReadCleanReq accesses
system.l2.ReadCleanReq_mshr_misses::.switch_cpus.inst          284                       # number of ReadCleanReq MSHR misses
system.l2.ReadCleanReq_mshr_misses::total          284                       # number of ReadCleanReq MSHR misses
system.l2.ReadExReq_accesses::.switch_cpus.data        19452                       # number of ReadExReq accesses(hits+misses)
system.l2.ReadExReq_accesses::total             19452                       # number of ReadExReq accesses(hits+misses)
system.l2.ReadExReq_avg_miss_latency::.switch_cpus.data 128016.778523                       # average ReadExReq miss latency
system.l2.ReadExReq_avg_miss_latency::total 128016.778523                       # average ReadExReq miss latency
system.l2.ReadExReq_avg_mshr_miss_latency::.switch_cpus.data 118016.778523                       # average ReadExReq mshr miss latency
system.l2.ReadExReq_avg_mshr_miss_latency::total 118016.778523                       # average ReadExReq mshr miss latency
system.l2.ReadExReq_hits::.switch_cpus.data        13641                       # number of ReadExReq hits
system.l2.ReadExReq_hits::total                 13641                       # number of ReadExReq hits
system.l2.ReadExReq_miss_latency::.switch_cpus.data    743905500                       # number of ReadExReq miss cycles
system.l2.ReadExReq_miss_latency::total     743905500                       # number of ReadExReq miss cycles
system.l2.ReadExReq_miss_rate::.switch_cpus.data     0.298735                       # miss rate for ReadExReq accesses
system.l2.ReadExReq_miss_rate::total         0.298735                       # miss rate for ReadExReq accesses
system.l2.ReadExReq_misses::.switch_cpus.data         5811                       # number of ReadExReq misses
system.l2.ReadExReq_misses::total                5811                       # number of ReadExReq misses
system.l2.ReadExReq_mshr_miss_latency::.switch_cpus.data    685795500                       # number of ReadExReq MSHR miss cycles
system.l2.ReadExReq_mshr_miss_latency::total    685795500                       # number of ReadExReq MSHR miss cycles
system.l2.ReadExReq_mshr_miss_rate::.switch_cpus.data     0.298735                       # mshr miss rate for ReadExReq accesses
system.l2.ReadExReq_mshr_miss_rate::total     0.298735                       # mshr miss rate for ReadExReq accesses
system.l2.ReadExReq_mshr_misses::.switch_cpus.data         5811                       # number of ReadExReq MSHR misses
system.l2.ReadExReq_mshr_misses::total           5811                       # number of ReadExReq MSHR misses
system.l2.ReadSharedReq_accesses::.cpu.data            2                       # number of ReadSharedReq accesses(hits+misses)
system.l2.ReadSharedReq_accesses::.switch_cpus.data       479283                       # number of ReadSharedReq accesses(hits+misses)
system.l2.ReadSharedReq_accesses::total        479285                       # number of ReadSharedReq accesses(hits+misses)
system.l2.ReadSharedReq_avg_miss_latency::.switch_cpus.data 100267.221546                       # average ReadSharedReq miss latency
system.l2.ReadSharedReq_avg_miss_latency::total 100262.698484                       # average ReadSharedReq miss latency
system.l2.ReadSharedReq_avg_mshr_miss_latency::.switch_cpus.data 90267.221546                       # average ReadSharedReq mshr miss latency
system.l2.ReadSharedReq_avg_mshr_miss_latency::total 90267.221546                       # average ReadSharedReq mshr miss latency
system.l2.ReadSharedReq_hits::.switch_cpus.data       434949                       # number of ReadSharedReq hits
system.l2.ReadSharedReq_hits::total            434949                       # number of ReadSharedReq hits
system.l2.ReadSharedReq_miss_latency::.switch_cpus.data   4445247000                       # number of ReadSharedReq miss cycles
system.l2.ReadSharedReq_miss_latency::total   4445247000                       # number of ReadSharedReq miss cycles
system.l2.ReadSharedReq_miss_rate::.cpu.data            1                       # miss rate for ReadSharedReq accesses
system.l2.ReadSharedReq_miss_rate::.switch_cpus.data     0.092501                       # miss rate for ReadSharedReq accesses
system.l2.ReadSharedReq_miss_rate::total     0.092504                       # miss rate for ReadSharedReq accesses
system.l2.ReadSharedReq_misses::.cpu.data            2                       # number of ReadSharedReq misses
system.l2.ReadSharedReq_misses::.switch_cpus.data        44334                       # number of ReadSharedReq misses
system.l2.ReadSharedReq_misses::total           44336                       # number of ReadSharedReq misses
system.l2.ReadSharedReq_mshr_miss_latency::.switch_cpus.data   4001907000                       # number of ReadSharedReq MSHR miss cycles
system.l2.ReadSharedReq_mshr_miss_latency::total   4001907000                       # number of ReadSharedReq MSHR miss cycles
system.l2.ReadSharedReq_mshr_miss_rate::.switch_cpus.data     0.092501                       # mshr miss rate for ReadSharedReq accesses
system.l2.ReadSharedReq_mshr_miss_rate::total     0.092500                       # mshr miss rate for ReadSharedReq accesses
system.l2.ReadSharedReq_mshr_misses::.switch_cpus.data        44334                       # number of ReadSharedReq MSHR misses
system.l2.ReadSharedReq_mshr_misses::total        44334                       # number of ReadSharedReq MSHR misses
system.l2.WritebackClean_accesses::.writebacks            1                       # number of WritebackClean accesses(hits+misses)
system.l2.WritebackClean_accesses::total            1                       # number of WritebackClean accesses(hits+misses)
system.l2.WritebackClean_hits::.writebacks            1                       # number of WritebackClean hits
system.l2.WritebackClean_hits::total                1                       # number of WritebackClean hits
system.l2.WritebackDirty_accesses::.writebacks        77564                       # number of WritebackDirty accesses(hits+misses)
system.l2.WritebackDirty_accesses::total        77564                       # number of WritebackDirty accesses(hits+misses)
system.l2.WritebackDirty_hits::.writebacks        77564                       # number of WritebackDirty hits
system.l2.WritebackDirty_hits::total            77564                       # number of WritebackDirty hits
system.l2.avg_blocked_cycles::no_mshrs            nan                       # average number of cycles each access was blocked
system.l2.avg_blocked_cycles::no_targets          nan                       # average number of cycles each access was blocked
system.l2.blocked::no_mshrs                         0                       # number of cycles access was blocked
system.l2.blocked::no_targets                       0                       # number of cycles access was blocked
system.l2.blocked_cycles::no_mshrs                  0                       # number of cycles access was blocked
system.l2.blocked_cycles::no_targets                0                       # number of cycles access was blocked
system.l2.demand_accesses::.cpu.inst                2                       # number of demand (read+write) accesses
system.l2.demand_accesses::.cpu.data                2                       # number of demand (read+write) accesses
system.l2.demand_accesses::.switch_cpus.inst          284                       # number of demand (read+write) accesses
system.l2.demand_accesses::.switch_cpus.data       498735                       # number of demand (read+write) accesses
system.l2.demand_accesses::total               499023                       # number of demand (read+write) accesses
system.l2.demand_avg_miss_latency::.switch_cpus.inst 96561.619718                       # average overall miss latency
system.l2.demand_avg_miss_latency::.switch_cpus.data 103482.949447                       # average overall miss latency
system.l2.demand_avg_miss_latency::total 103435.766264                       # average overall miss latency
system.l2.demand_avg_mshr_miss_latency::.switch_cpus.inst 86561.619718                       # average overall mshr miss latency
system.l2.demand_avg_mshr_miss_latency::.switch_cpus.data 93482.949447                       # average overall mshr miss latency
system.l2.demand_avg_mshr_miss_latency::total 93443.970731                       # average overall mshr miss latency
system.l2.demand_hits::.switch_cpus.data       448590                       # number of demand (read+write) hits
system.l2.demand_hits::total                   448590                       # number of demand (read+write) hits
system.l2.demand_miss_latency::.switch_cpus.inst     27423500                       # number of demand (read+write) miss cycles
system.l2.demand_miss_latency::.switch_cpus.data   5189152500                       # number of demand (read+write) miss cycles
system.l2.demand_miss_latency::total       5216576000                       # number of demand (read+write) miss cycles
system.l2.demand_miss_rate::.cpu.inst               1                       # miss rate for demand accesses
system.l2.demand_miss_rate::.cpu.data               1                       # miss rate for demand accesses
system.l2.demand_miss_rate::.switch_cpus.inst            1                       # miss rate for demand accesses
system.l2.demand_miss_rate::.switch_cpus.data     0.100544                       # miss rate for demand accesses
system.l2.demand_miss_rate::total            0.101063                       # miss rate for demand accesses
system.l2.demand_misses::.cpu.inst                  2                       # number of demand (read+write) misses
system.l2.demand_misses::.cpu.data                  2                       # number of demand (read+write) misses
system.l2.demand_misses::.switch_cpus.inst          284                       # number of demand (read+write) misses
system.l2.demand_misses::.switch_cpus.data        50145                       # number of demand (read+write) misses
system.l2.demand_misses::total                  50433                       # number of demand (read+write) misses
system.l2.demand_mshr_miss_latency::.switch_cpus.inst     24583500                       # number of demand (read+write) MSHR miss cycles
system.l2.demand_mshr_miss_latency::.switch_cpus.data   4687702500                       # number of demand (read+write) MSHR miss cycles
system.l2.demand_mshr_miss_latency::total   4712286000                       # number of demand (read+write) MSHR miss cycles
system.l2.demand_mshr_miss_rate::.switch_cpus.inst            1                       # mshr miss rate for demand accesses
system.l2.demand_mshr_miss_rate::.switch_cpus.data     0.100544                       # mshr miss rate for demand accesses
system.l2.demand_mshr_miss_rate::total       0.101055                       # mshr miss rate for demand accesses
system.l2.demand_mshr_misses::.switch_cpus.inst          284                       # number of demand (read+write) MSHR misses
system.l2.demand_mshr_misses::.switch_cpus.data        50145                       # number of demand (read+write) MSHR misses
system.l2.demand_mshr_misses::total             50429                       # number of demand (read+write) MSHR misses
system.l2.overall_accesses::.cpu.inst               2                       # number of overall (read+write) accesses
system.l2.overall_accesses::.cpu.data               2                       # number of overall (read+write) accesses
system.l2.overall_accesses::.switch_cpus.inst          284                       # number of overall (read+write) accesses
system.l2.overall_accesses::.switch_cpus.data       498735                       # number of overall (read+write) accesses
system.l2.overall_accesses::total              499023                       # number of overall (read+write) accesses
system.l2.overall_avg_miss_latency::.switch_cpus.inst 96561.619718                       # average overall miss latency
system.l2.overall_avg_miss_latency::.switch_cpus.data 103482.949447                       # average overall miss latency
system.l2.overall_avg_miss_latency::total 103435.766264                       # average overall miss latency
system.l2.overall_avg_mshr_miss_latency::.switch_cpus.inst 86561.619718                       # average overall mshr miss latency
system.l2.overall_avg_mshr_miss_latency::.switch_cpus.data 93482.949447                       # average overall mshr miss latency
system.l2.overall_avg_mshr_miss_latency::total 93443.970731                       # average overall mshr miss latency
system.l2.overall_hits::.switch_cpus.data       448590                       # number of overall hits
system.l2.overall_hits::total                  448590                       # number of overall hits
system.l2.overall_miss_latency::.switch_cpus.inst     27423500                       # number of overall miss cycles
system.l2.overall_miss_latency::.switch_cpus.data   5189152500                       # number of overall miss cycles
system.l2.overall_miss_latency::total      5216576000                       # number of overall miss cycles
system.l2.overall_miss_rate::.cpu.inst              1                       # miss rate for overall accesses
system.l2.overall_miss_rate::.cpu.data              1                       # miss rate for overall accesses
system.l2.overall_miss_rate::.switch_cpus.inst            1                       # miss rate for overall accesses
system.l2.overall_miss_rate::.switch_cpus.data     0.100544                       # miss rate for overall accesses
system.l2.overall_miss_rate::total           0.101063                       # miss rate for overall accesses
system.l2.overall_misses::.cpu.inst                 2                       # number of overall misses
system.l2.overall_misses::.cpu.data                 2                       # number of overall misses
system.l2.overall_misses::.switch_cpus.inst          284                       # number of overall misses
system.l2.overall_misses::.switch_cpus.data        50145                       # number of overall misses
system.l2.overall_misses::total                 50433                       # number of overall misses
system.l2.overall_mshr_miss_latency::.switch_cpus.inst     24583500                       # number of overall MSHR miss cycles
system.l2.overall_mshr_miss_latency::.switch_cpus.data   4687702500                       # number of overall MSHR miss cycles
system.l2.overall_mshr_miss_latency::total   4712286000                       # number of overall MSHR miss cycles
system.l2.overall_mshr_miss_rate::.switch_cpus.inst            1                       # mshr miss rate for overall accesses
system.l2.overall_mshr_miss_rate::.switch_cpus.data     0.100544                       # mshr miss rate for overall accesses
system.l2.overall_mshr_miss_rate::total      0.101055                       # mshr miss rate for overall accesses
system.l2.overall_mshr_misses::.switch_cpus.inst          284                       # number of overall MSHR misses
system.l2.overall_mshr_misses::.switch_cpus.data        50145                       # number of overall MSHR misses
system.l2.overall_mshr_misses::total            50429                       # number of overall MSHR misses
system.l2.pwrStateResidencyTicks::UNDEFINED 2466785105500                       # Cumulative time (in ticks) in various power states
system.l2.replacements                          17702                       # number of replacements
system.l2.tags.age_task_id_blocks_1024::0            1                       # Occupied blocks per task id
system.l2.tags.age_task_id_blocks_1024::1          281                       # Occupied blocks per task id
system.l2.tags.age_task_id_blocks_1024::2         1465                       # Occupied blocks per task id
system.l2.tags.age_task_id_blocks_1024::3        13803                       # Occupied blocks per task id
system.l2.tags.age_task_id_blocks_1024::4        17181                       # Occupied blocks per task id
system.l2.tags.avg_refs                     19.625211                       # Average number of references to valid blocks.
system.l2.tags.data_accesses                 16020442                       # Number of data accesses
system.l2.tags.occ_blocks::.writebacks      17.124844                       # Average occupied blocks per requestor
system.l2.tags.occ_blocks::.cpu.inst         1.513285                       # Average occupied blocks per requestor
system.l2.tags.occ_blocks::.cpu.data         2.000000                       # Average occupied blocks per requestor
system.l2.tags.occ_blocks::.switch_cpus.inst   172.292680                       # Average occupied blocks per requestor
system.l2.tags.occ_blocks::.switch_cpus.data 21867.865172                       # Average occupied blocks per requestor
system.l2.tags.occ_percent::.writebacks      0.000523                       # Average percentage of cache occupancy
system.l2.tags.occ_percent::.cpu.inst        0.000046                       # Average percentage of cache occupancy
system.l2.tags.occ_percent::.cpu.data        0.000061                       # Average percentage of cache occupancy
system.l2.tags.occ_percent::.switch_cpus.inst     0.005258                       # Average percentage of cache occupancy
system.l2.tags.occ_percent::.switch_cpus.data     0.667354                       # Average percentage of cache occupancy
system.l2.tags.occ_percent::total            0.673242                       # Average percentage of cache occupancy
system.l2.tags.occ_task_id_blocks::1024         32731                       # Occupied blocks per task id
system.l2.tags.occ_task_id_percent::1024     0.998871                       # Percentage of cache occupancy per task id
system.l2.tags.pwrStateResidencyTicks::UNDEFINED 2466785105500                       # Cumulative time (in ticks) in various power states
system.l2.tags.sampled_refs                     50858                       # Sample count of references to valid blocks.
system.l2.tags.tag_accesses                  16020442                       # Number of tag accesses
system.l2.tags.tagsinuse                 22060.795982                       # Cycle average of tags in use
system.l2.tags.total_refs                      998099                       # Total number of references to valid blocks.
system.l2.tags.warmup_cycle              2435413362000                       # Cycle when the warmup percentage was hit.
system.l2.writebacks::.writebacks                8116                       # number of writebacks
system.l2.writebacks::total                      8116                       # number of writebacks
system.mem_ctrls.avgBusLat                    5000.00                       # Average bus latency per DRAM burst
system.mem_ctrls.avgGap                     535565.78                       # Average gap between requests
system.mem_ctrls.avgMemAccLat                52210.85                       # Average memory access latency per DRAM burst
system.mem_ctrls.avgPriority_.writebacks::samples      8116.00                       # Average QoS priority value for accepted requests
system.mem_ctrls.avgPriority_.switch_cpus.inst::samples       284.00                       # Average QoS priority value for accepted requests
system.mem_ctrls.avgPriority_.switch_cpus.data::samples     50145.00                       # Average QoS priority value for accepted requests
system.mem_ctrls.avgQLat                     33460.85                       # Average queueing delay per DRAM burst
system.mem_ctrls.avgRdBW                       102.88                       # Average DRAM read bandwidth in MiByte/s
system.mem_ctrls.avgRdBWSys                    102.88                       # Average system read bandwidth in MiByte/s
system.mem_ctrls.avgRdQLen                       1.12                       # Average read queue length when enqueuing
system.mem_ctrls.avgWrBW                        16.52                       # Average achieved write bandwidth in MiByte/s
system.mem_ctrls.avgWrBWSys                     16.56                       # Average system write bandwidth in MiByte/s
system.mem_ctrls.avgWrQLen                      15.27                       # Average write queue length when enqueuing
system.mem_ctrls.busUtil                         0.93                       # Data bus utilization in percentage
system.mem_ctrls.busUtilRead                     0.80                       # Data bus utilization in percentage for reads
system.mem_ctrls.busUtilWrite                    0.13                       # Data bus utilization in percentage for writes
system.mem_ctrls.bw_inst_read::.cpu.inst         4080                       # Instruction read bandwidth from this memory (bytes/s)
system.mem_ctrls.bw_inst_read::.switch_cpus.inst       579375                       # Instruction read bandwidth from this memory (bytes/s)
system.mem_ctrls.bw_inst_read::total           583455                       # Instruction read bandwidth from this memory (bytes/s)
system.mem_ctrls.bw_read::.cpu.inst              4080                       # Total read bandwidth from this memory (bytes/s)
system.mem_ctrls.bw_read::.cpu.data              4080                       # Total read bandwidth from this memory (bytes/s)
system.mem_ctrls.bw_read::.switch_cpus.inst       579375                       # Total read bandwidth from this memory (bytes/s)
system.mem_ctrls.bw_read::.switch_cpus.data    102298425                       # Total read bandwidth from this memory (bytes/s)
system.mem_ctrls.bw_read::total             102885960                       # Total read bandwidth from this memory (bytes/s)
system.mem_ctrls.bw_total::.writebacks       16557065                       # Total bandwidth to/from this memory (bytes/s)
system.mem_ctrls.bw_total::.cpu.inst             4080                       # Total bandwidth to/from this memory (bytes/s)
system.mem_ctrls.bw_total::.cpu.data             4080                       # Total bandwidth to/from this memory (bytes/s)
system.mem_ctrls.bw_total::.switch_cpus.inst       579375                       # Total bandwidth to/from this memory (bytes/s)
system.mem_ctrls.bw_total::.switch_cpus.data    102298425                       # Total bandwidth to/from this memory (bytes/s)
system.mem_ctrls.bw_total::total            119443025                       # Total bandwidth to/from this memory (bytes/s)
system.mem_ctrls.bw_write::.writebacks       16557065                       # Write bandwidth from this memory (bytes/s)
system.mem_ctrls.bw_write::total             16557065                       # Write bandwidth from this memory (bytes/s)
system.mem_ctrls.bytesPerActivate::samples        25325                       # Bytes accessed per row activation
system.mem_ctrls.bytesPerActivate::mean    147.908865                       # Bytes accessed per row activation
system.mem_ctrls.bytesPerActivate::gmean   105.498920                       # Bytes accessed per row activation
system.mem_ctrls.bytesPerActivate::stdev   170.660774                       # Bytes accessed per row activation
system.mem_ctrls.bytesPerActivate::0-127        14891     58.80%     58.80% # Bytes accessed per row activation
system.mem_ctrls.bytesPerActivate::128-255         6487     25.62%     84.41% # Bytes accessed per row activation
system.mem_ctrls.bytesPerActivate::256-383         1772      7.00%     91.41% # Bytes accessed per row activation
system.mem_ctrls.bytesPerActivate::384-511          814      3.21%     94.63% # Bytes accessed per row activation
system.mem_ctrls.bytesPerActivate::512-639          523      2.07%     96.69% # Bytes accessed per row activation
system.mem_ctrls.bytesPerActivate::640-767          249      0.98%     97.67% # Bytes accessed per row activation
system.mem_ctrls.bytesPerActivate::768-895          133      0.53%     98.20% # Bytes accessed per row activation
system.mem_ctrls.bytesPerActivate::896-1023          104      0.41%     98.61% # Bytes accessed per row activation
system.mem_ctrls.bytesPerActivate::1024-1151          352      1.39%    100.00% # Bytes accessed per row activation
system.mem_ctrls.bytesPerActivate::total        25325                       # Bytes accessed per row activation
system.mem_ctrls.bytesReadDRAM                3227456                       # Total number of bytes read from DRAM
system.mem_ctrls.bytesReadSys                 3227456                       # Total read bytes from the system interface side
system.mem_ctrls.bytesReadWrQ                       0                       # Total number of bytes read from write queue
system.mem_ctrls.bytesWritten                  518336                       # Total number of bytes written to DRAM
system.mem_ctrls.bytesWrittenSys               519424                       # Total written bytes from the system interface side
system.mem_ctrls.bytes_inst_read::.cpu.inst          128                       # Number of instructions bytes read from this memory
system.mem_ctrls.bytes_inst_read::.switch_cpus.inst        18176                       # Number of instructions bytes read from this memory
system.mem_ctrls.bytes_inst_read::total         18304                       # Number of instructions bytes read from this memory
system.mem_ctrls.bytes_read::.cpu.inst            128                       # Number of bytes read from this memory
system.mem_ctrls.bytes_read::.cpu.data            128                       # Number of bytes read from this memory
system.mem_ctrls.bytes_read::.switch_cpus.inst        18176                       # Number of bytes read from this memory
system.mem_ctrls.bytes_read::.switch_cpus.data      3209280                       # Number of bytes read from this memory
system.mem_ctrls.bytes_read::total            3227712                       # Number of bytes read from this memory
system.mem_ctrls.bytes_written::.writebacks       519424                       # Number of bytes written to this memory
system.mem_ctrls.bytes_written::total          519424                       # Number of bytes written to this memory
system.mem_ctrls.masterReadAccesses::.switch_cpus.inst          284                       # Per-master read serviced memory accesses
system.mem_ctrls.masterReadAccesses::.switch_cpus.data        50145                       # Per-master read serviced memory accesses
system.mem_ctrls.masterReadAvgLat::.switch_cpus.inst     45408.45                       # Per-master read average memory access latency
system.mem_ctrls.masterReadAvgLat::.switch_cpus.data     52249.38                       # Per-master read average memory access latency
system.mem_ctrls.masterReadBytes::.switch_cpus.inst        18176                       # Per-master bytes read from memory
system.mem_ctrls.masterReadBytes::.switch_cpus.data      3209280                       # Per-master bytes read from memory
system.mem_ctrls.masterReadRate::.switch_cpus.inst 579374.866759081022                       # Per-master bytes read from memory rate (Bytes/sec)
system.mem_ctrls.masterReadRate::.switch_cpus.data 102298424.977584928274                       # Per-master bytes read from memory rate (Bytes/sec)
system.mem_ctrls.masterReadTotalLat::.switch_cpus.inst     12896000                       # Per-master read total memory access latency
system.mem_ctrls.masterReadTotalLat::.switch_cpus.data   2620045000                       # Per-master read total memory access latency
system.mem_ctrls.masterWriteAccesses::.writebacks         8116                       # Per-master write serviced memory accesses
system.mem_ctrls.masterWriteAvgLat::.writebacks  56472034.04                       # Per-master write average memory access latency
system.mem_ctrls.masterWriteBytes::.writebacks       518336                       # Per-master bytes write to memory
system.mem_ctrls.masterWriteRate::.writebacks 16522383.964372524992                       # Per-master bytes write to memory rate (Bytes/sec)
system.mem_ctrls.masterWriteTotalLat::.writebacks 458327028250                       # Per-master write total memory access latency
system.mem_ctrls.mergedWrBursts                     0                       # Number of DRAM write bursts merged with an existing one
system.mem_ctrls.neitherReadNorWriteReqs            0                       # Number of requests that are neither read nor write
system.mem_ctrls.numRdRetry                         0                       # Number of times read queue was full causing retry
system.mem_ctrls.numReadWriteTurnArounds          485                       # Number of turnarounds from READ to WRITE
system.mem_ctrls.numStayReadState              112810                       # Number of times bus staying in READ state
system.mem_ctrls.numStayWriteState               7625                       # Number of times bus staying in WRITE state
system.mem_ctrls.numWrRetry                         0                       # Number of times write queue was full causing retry
system.mem_ctrls.numWriteReadTurnArounds          485                       # Number of turnarounds from WRITE to READ
system.mem_ctrls.num_reads::.cpu.inst               2                       # Number of read requests responded to by this memory
system.mem_ctrls.num_reads::.cpu.data               2                       # Number of read requests responded to by this memory
system.mem_ctrls.num_reads::.switch_cpus.inst          284                       # Number of read requests responded to by this memory
system.mem_ctrls.num_reads::.switch_cpus.data        50145                       # Number of read requests responded to by this memory
system.mem_ctrls.num_reads::total               50433                       # Number of read requests responded to by this memory
system.mem_ctrls.num_writes::.writebacks         8116                       # Number of write requests responded to by this memory
system.mem_ctrls.num_writes::total               8116                       # Number of write requests responded to by this memory
system.mem_ctrls.pageHitRate                    56.71                       # Row buffer hit rate, read and write combined
system.mem_ctrls.peakBW                      12800.00                       # Theoretical peak bandwidth in MiByte/s
system.mem_ctrls.perBankRdBursts::0              2779                       # Per bank write bursts
system.mem_ctrls.perBankRdBursts::1              3484                       # Per bank write bursts
system.mem_ctrls.perBankRdBursts::2              3657                       # Per bank write bursts
system.mem_ctrls.perBankRdBursts::3              3431                       # Per bank write bursts
system.mem_ctrls.perBankRdBursts::4              3493                       # Per bank write bursts
system.mem_ctrls.perBankRdBursts::5              3218                       # Per bank write bursts
system.mem_ctrls.perBankRdBursts::6              2483                       # Per bank write bursts
system.mem_ctrls.perBankRdBursts::7              2706                       # Per bank write bursts
system.mem_ctrls.perBankRdBursts::8              2842                       # Per bank write bursts
system.mem_ctrls.perBankRdBursts::9              3961                       # Per bank write bursts
system.mem_ctrls.perBankRdBursts::10             2934                       # Per bank write bursts
system.mem_ctrls.perBankRdBursts::11             2517                       # Per bank write bursts
system.mem_ctrls.perBankRdBursts::12             2950                       # Per bank write bursts
system.mem_ctrls.perBankRdBursts::13             3719                       # Per bank write bursts
system.mem_ctrls.perBankRdBursts::14             3327                       # Per bank write bursts
system.mem_ctrls.perBankRdBursts::15             2928                       # Per bank write bursts
system.mem_ctrls.perBankWrBursts::0               302                       # Per bank write bursts
system.mem_ctrls.perBankWrBursts::1               640                       # Per bank write bursts
system.mem_ctrls.perBankWrBursts::2               873                       # Per bank write bursts
system.mem_ctrls.perBankWrBursts::3               584                       # Per bank write bursts
system.mem_ctrls.perBankWrBursts::4               784                       # Per bank write bursts
[...]
system.switch_cpus.iq.fu_full::IntDiv               0      0.00%     57.63% # attempts to use FU when none available
system.switch_cpus.iq.fu_full::FloatAdd             0      0.00%     57.63% # attempts to use FU when none available
system.switch_cpus.iq.fu_full::FloatCmp             0      0.00%     57.63% # attempts to use FU when none available
system.switch_cpus.iq.fu_full::FloatCvt             0      0.00%     57.63% # attempts to use FU when none available
system.switch_cpus.iq.fu_full::FloatMult            0      0.00%     57.63% # attempts to use FU when none available
system.switch_cpus.iq.fu_full::FloatMultAcc            0      0.00%     57.63% # attempts to use FU when none available
system.switch_cpus.iq.fu_full::FloatDiv             0      0.00%     57.63% # attempts to use FU when none available
system.switch_cpus.iq.fu_full::FloatMisc            0      0.00%     57.63% # attempts to use FU when none available
system.switch_cpus.iq.fu_full::FloatSqrt            0      0.00%     57.63% # attempts to use FU when none available
system.switch_cpus.iq.fu_full::SimdAdd              0      0.00%     57.63% # attempts to use FU when none available
system.switch_cpus.iq.fu_full::SimdAddAcc            0      0.00%     57.63% # attempts to use FU when none available
system.switch_cpus.iq.fu_full::SimdAlu              0      0.00%     57.63% # attempts to use FU when none available
system.switch_cpus.iq.fu_full::SimdCmp              0      0.00%     57.63% # attempts to use FU when none available
system.switch_cpus.iq.fu_full::SimdCvt              0      0.00%     57.63% # attempts to use FU when none available
system.switch_cpus.iq.fu_full::SimdMisc             0      0.00%     57.63% # attempts to use FU when none available
system.switch_cpus.iq.fu_full::SimdMult             0      0.00%     57.63% # attempts to use FU when none available
system.switch_cpus.iq.fu_full::SimdMultAcc            0      0.00%     57.63% # attempts to use FU when none available
system.switch_cpus.iq.fu_full::SimdShift            0      0.00%     57.63% # attempts to use FU when none available
system.switch_cpus.iq.fu_full::SimdShiftAcc            0      0.00%     57.63% # attempts to use FU when none available
system.switch_cpus.iq.fu_full::SimdSqrt             0      0.00%     57.63% # attempts to use FU when none available
system.switch_cpus.iq.fu_full::SimdFloatAdd            0      0.00%     57.63% # attempts to use FU when none available
system.switch_cpus.iq.fu_full::SimdFloatAlu            0      0.00%     57.63% # attempts to use FU when none available
system.switch_cpus.iq.fu_full::SimdFloatCmp            0      0.00%     57.63% # attempts to use FU when none available
system.switch_cpus.iq.fu_full::SimdFloatCvt            0      0.00%     57.63% # attempts to use FU when none available
system.switch_cpus.iq.fu_full::SimdFloatDiv            0      0.00%     57.63% # attempts to use FU when none available
system.switch_cpus.iq.fu_full::SimdFloatMisc            0      0.00%     57.63% # attempts to use FU when none available
system.switch_cpus.iq.fu_full::SimdFloatMult            0      0.00%     57.63% # attempts to use FU when none available
system.switch_cpus.iq.fu_full::SimdFloatMultAcc            0      0.00%     57.63% # attempts to use FU when none available
system.switch_cpus.iq.fu_full::SimdFloatSqrt            0      0.00%     57.63% # attempts to use FU when none available
system.switch_cpus.iq.fu_full::SimdAes              0      0.00%     57.63% # attempts to use FU when none available
system.switch_cpus.iq.fu_full::SimdAesMix            0      0.00%     57.63% # attempts to use FU when none available
system.switch_cpus.iq.fu_full::SimdSha1Hash            0      0.00%     57.63% # attempts to use FU when none available
system.switch_cpus.iq.fu_full::SimdSha1Hash2            0      0.00%     57.63% # attempts to use FU when none available
system.switch_cpus.iq.fu_full::SimdSha256Hash            0      0.00%     57.63% # attempts to use FU when none available
system.switch_cpus.iq.fu_full::SimdSha256Hash2            0      0.00%     57.63% # attempts to use FU when none available
system.switch_cpus.iq.fu_full::SimdShaSigma2            0      0.00%     57.63% # attempts to use FU when none available
system.switch_cpus.iq.fu_full::SimdShaSigma3            0      0.00%     57.63% # attempts to use FU when none available
system.switch_cpus.iq.fu_full::MemRead         344856     27.31%     84.94% # attempts to use FU when none available
system.switch_cpus.iq.fu_full::MemWrite        190208     15.06%    100.00% # attempts to use FU when none available
system.switch_cpus.iq.fu_full::FloatMemRead            0      0.00%    100.00% # attempts to use FU when none available
system.switch_cpus.iq.fu_full::FloatMemWrite            0      0.00%    100.00% # attempts to use FU when none available
system.switch_cpus.iq.fu_full::IprAccess            0      0.00%    100.00% # attempts to use FU when none available
system.switch_cpus.iq.fu_full::InstPrefetch            0      0.00%    100.00% # attempts to use FU when none available
system.switch_cpus.iq.int_alu_accesses      103432907                       # Number of integer alu accesses
system.switch_cpus.iq.int_inst_queue_reads    268365470                       # Number of integer instruction queue reads
system.switch_cpus.iq.int_inst_queue_wakeup_accesses    101752124                       # Number of integer instruction queue wakeup accesses
system.switch_cpus.iq.int_inst_queue_writes    106741961                       # Number of integer instruction queue writes
system.switch_cpus.iq.iqInstsAdded          103247927                       # Number of instructions added to the IQ (excludes non-spec)
system.switch_cpus.iq.iqInstsIssued         102309485                       # Number of instructions issued
system.switch_cpus.iq.iqNonSpecInstsAdded       184106                       # Number of non-speculative instructions added to the IQ
system.switch_cpus.iq.iqSquashedInstsExamined      3432023                       # Number of squashed instructions iterated over during squash; mainly for profiling
system.switch_cpus.iq.iqSquashedInstsIssued        10843                       # Number of squashed instructions issued
system.switch_cpus.iq.iqSquashedNonSpecRemoved         4304                       # Number of squashed non-spec instructions that were removed
system.switch_cpus.iq.iqSquashedOperandsExamined      1780054                       # Number of squashed operands that are examined and possibly removed from graph
system.switch_cpus.iq.issued_per_cycle::samples     62717115                       # Number of insts issued each cycle
system.switch_cpus.iq.issued_per_cycle::mean     1.631285                       # Number of insts issued each cycle
system.switch_cpus.iq.issued_per_cycle::stdev     1.604487                       # Number of insts issued each cycle
system.switch_cpus.iq.issued_per_cycle::underflows            0      0.00%      0.00% # Number of insts issued each cycle
system.switch_cpus.iq.issued_per_cycle::0     16691513     26.61%     26.61% # Number of insts issued each cycle
system.switch_cpus.iq.issued_per_cycle::1     21677009     34.56%     61.18% # Number of insts issued each cycle
system.switch_cpus.iq.issued_per_cycle::2      9911156     15.80%     76.98% # Number of insts issued each cycle
system.switch_cpus.iq.issued_per_cycle::3      1080104      1.72%     78.70% # Number of insts issued each cycle
system.switch_cpus.iq.issued_per_cycle::4     11436026     18.23%     96.94% # Number of insts issued each cycle
system.switch_cpus.iq.issued_per_cycle::5       513241      0.82%     97.75% # Number of insts issued each cycle
system.switch_cpus.iq.issued_per_cycle::6       731032      1.17%     98.92% # Number of insts issued each cycle
system.switch_cpus.iq.issued_per_cycle::7       542921      0.87%     99.79% # Number of insts issued each cycle
system.switch_cpus.iq.issued_per_cycle::8       134113      0.21%    100.00% # Number of insts issued each cycle
system.switch_cpus.iq.issued_per_cycle::overflows            0      0.00%    100.00% # Number of insts issued each cycle
system.switch_cpus.iq.issued_per_cycle::min_value            0                       # Number of insts issued each cycle
system.switch_cpus.iq.issued_per_cycle::max_value            8                       # Number of insts issued each cycle
system.switch_cpus.iq.issued_per_cycle::total     62717115                       # Number of insts issued each cycle
system.switch_cpus.iq.rate                   1.630600                       # Inst issue rate
system.switch_cpus.iq.vec_alu_accesses              0                       # Number of vector alu accesses
system.switch_cpus.iq.vec_inst_queue_reads            0                       # Number of vector instruction queue reads
system.switch_cpus.iq.vec_inst_queue_wakeup_accesses            0                       # Number of vector instruction queue wakeup accesses
system.switch_cpus.iq.vec_inst_queue_writes            0                       # Number of vector instruction queue writes
system.switch_cpus.itb.data_accesses                0                       # DTB accesses
system.switch_cpus.itb.data_acv                     0                       # DTB access violations
system.switch_cpus.itb.data_hits                    0                       # DTB hits
system.switch_cpus.itb.data_misses                  0                       # DTB misses
system.switch_cpus.itb.fetch_accesses        24489133                       # ITB accesses
system.switch_cpus.itb.fetch_acv                    0                       # ITB acv
system.switch_cpus.itb.fetch_hits            24488009                       # ITB hits
system.switch_cpus.itb.fetch_misses              1124                       # ITB misses
system.switch_cpus.itb.pwrStateResidencyTicks::UNDEFINED 2466785105500                       # Cumulative time (in ticks) in various power states
system.switch_cpus.itb.read_accesses                0                       # DTB read accesses
system.switch_cpus.itb.read_acv                     0                       # DTB read access violations
system.switch_cpus.itb.read_hits                    0                       # DTB read hits
system.switch_cpus.itb.read_misses                  0                       # DTB read misses
system.switch_cpus.itb.write_accesses               0                       # DTB write accesses
system.switch_cpus.itb.write_acv                    0                       # DTB write access violations
system.switch_cpus.itb.write_hits                   0                       # DTB write hits
system.switch_cpus.itb.write_misses                 0                       # DTB write misses
system.switch_cpus.memDep0.conflictingLoads       348306                       # Number of conflicting loads.
system.switch_cpus.memDep0.conflictingStores       442634                       # Number of conflicting stores.
system.switch_cpus.memDep0.insertedLoads     25835676                       # Number of loads inserted to the mem dependence unit.
system.switch_cpus.memDep0.insertedStores      2496297                       # Number of stores inserted to the mem dependence unit.
system.switch_cpus.misc_regfile_reads          222628                       # number of misc regfile reads
system.switch_cpus.misc_regfile_writes         187922                       # number of misc regfile writes
system.switch_cpus.numCycles                 62743468                       # number of cpu cycles simulated
system.switch_cpus.numWorkItemsCompleted            0                       # number of work items this cpu completed
system.switch_cpus.numWorkItemsStarted              0                       # number of work items this cpu started
system.switch_cpus.pwrStateResidencyTicks::OFF  31371744000                       # Cumulative time (in ticks) in various power states
system.switch_cpus.rename.BlockCycles         2045418                       # Number of cycles rename is blocking
system.switch_cpus.rename.CommittedMaps      74151590                       # Number of HB maps that are committed
system.switch_cpus.rename.IQFullEvents         109277                       # Number of times rename has blocked due to IQ full
system.switch_cpus.rename.IdleCycles         23672667                       # Number of cycles rename is idle
system.switch_cpus.rename.LQFullEvents        1001796                       # Number of times rename has blocked due to LQ full
system.switch_cpus.rename.ROBFullEvents          7582                       # Number of times rename has blocked due to ROB full
system.switch_cpus.rename.RenameLookups     130859815                       # Number of register rename lookups that rename has made
system.switch_cpus.rename.RenamedInsts      104871249                       # Number of instructions processed by rename
system.switch_cpus.rename.RenamedOperands     77334870                       # Number of destination operands rename has renamed
system.switch_cpus.rename.RunCycles          24640659                       # Number of cycles rename is running
system.switch_cpus.rename.SQFullEvents           3866                       # Number of times rename has blocked due to SQ full
system.switch_cpus.rename.SquashCycles         146466                       # Number of cycles rename is squashing
system.switch_cpus.rename.UnblockCycles       1170628                       # Number of cycles rename is unblocking
system.switch_cpus.rename.UndoneMaps          3183268                       # Number of HB maps that are undone due to squashing
system.switch_cpus.rename.fp_rename_lookups        81551                       # Number of floating rename lookups
system.switch_cpus.rename.int_rename_lookups    130743558                       # Number of integer rename lookups
system.switch_cpus.rename.serializeStallCycles     11041276                       # count of cycles rename stalled for serializing inst
system.switch_cpus.rename.serializingInsts       160058                       # count of serializing insts renamed
system.switch_cpus.rename.skidInsts            769578                       # count of insts added to the skid buffer
system.switch_cpus.rename.tempSerializingInsts        93201                       # count of temporary serializing insts renamed
system.switch_cpus.rob.rob_reads            162529896                       # The number of ROB reads
system.switch_cpus.rob.rob_writes           208134596                       # The number of ROB writes
system.switch_cpus.timesIdled                     185                       # Number of times that the entire CPU went into an idle state and unscheduled itself
system.tol2bus.pkt_count_system.cpu.icache.mem_side::system.l2.cpu_side          573                       # Packet count per connected master and slave (bytes)
system.tol2bus.pkt_count_system.cpu.dcache.mem_side::system.l2.cpu_side      1496974                       # Packet count per connected master and slave (bytes)
system.tol2bus.pkt_count::total               1497547                       # Packet count per connected master and slave (bytes)
system.tol2bus.pkt_size_system.cpu.icache.mem_side::system.l2.cpu_side        18368                       # Cumulative packet size per connected master and slave (bytes)
system.tol2bus.pkt_size_system.cpu.dcache.mem_side::system.l2.cpu_side     36883264                       # Cumulative packet size per connected master and slave (bytes)
system.tol2bus.pkt_size::total               36901632                       # Cumulative packet size per connected master and slave (bytes)
system.tol2bus.pwrStateResidencyTicks::UNDEFINED 2466785105500                       # Cumulative time (in ticks) in various power states
system.tol2bus.reqLayer0.occupancy          576612500                       # Layer occupancy (ticks)
system.tol2bus.reqLayer0.utilization              1.8                       # Layer utilization (%)
system.tol2bus.respLayer0.occupancy            426000                       # Layer occupancy (ticks)
system.tol2bus.respLayer0.utilization             0.0                       # Layer utilization (%)
system.tol2bus.respLayer1.occupancy         748315000                       # Layer occupancy (ticks)
system.tol2bus.respLayer1.utilization             2.4                       # Layer utilization (%)
system.tol2bus.snoopTraffic                    519424                       # Total snoop traffic (bytes)
system.tol2bus.snoop_fanout::samples           517150                       # Request fanout histogram
system.tol2bus.snoop_fanout::mean            0.000520                       # Request fanout histogram
system.tol2bus.snoop_fanout::stdev           0.022801                       # Request fanout histogram
system.tol2bus.snoop_fanout::underflows             0      0.00%      0.00% # Request fanout histogram
system.tol2bus.snoop_fanout::0                 516881     99.95%     99.95% # Request fanout histogram
system.tol2bus.snoop_fanout::1                    269      0.05%    100.00% # Request fanout histogram
system.tol2bus.snoop_fanout::2                      0      0.00%    100.00% # Request fanout histogram
system.tol2bus.snoop_fanout::overflows              0      0.00%    100.00% # Request fanout histogram
system.tol2bus.snoop_fanout::min_value              0                       # Request fanout histogram
system.tol2bus.snoop_fanout::max_value              1                       # Request fanout histogram
system.tol2bus.snoop_fanout::total             517150                       # Request fanout histogram
system.tol2bus.snoop_filter.hit_multi_requests            0                       # Number of requests hitting in the snoop filter with multiple (>1) holders of the requested data.
system.tol2bus.snoop_filter.hit_multi_snoops            0                       # Number of snoops hitting in the snoop filter with multiple (>1) holders of the requested data.
system.tol2bus.snoop_filter.hit_single_requests       498651                       # Number of requests hitting in the snoop filter with a single holder of the requested data.
system.tol2bus.snoop_filter.hit_single_snoops          269                       # Number of snoops hitting in the snoop filter with a single holder of the requested data.
system.tol2bus.snoop_filter.tot_requests       998099                       # Total number of requests made to the snoop filter.
system.tol2bus.snoop_filter.tot_snoops            269                       # Total number of snoops made to the snoop filter.
system.tol2bus.snoops                           17702                       # Total snoops (count)
system.tol2bus.trans_dist::ReadResp            479571                       # Transaction distribution
system.tol2bus.trans_dist::WritebackDirty        85680                       # Transaction distribution
system.tol2bus.trans_dist::WritebackClean            1                       # Transaction distribution
system.tol2bus.trans_dist::CleanEvict          430672                       # Transaction distribution
system.tol2bus.trans_dist::ReadExReq            19452                       # Transaction distribution
system.tol2bus.trans_dist::ReadExResp           19452                       # Transaction distribution
system.tol2bus.trans_dist::ReadCleanReq           286                       # Transaction distribution
system.tol2bus.trans_dist::ReadSharedReq       479285                       # Transaction distribution
system.tol2bus.trans_dist::InvalidateReq          425                       # Transaction distribution
system.tol2bus.trans_dist::InvalidateResp          425                       # Transaction distribution
system.voltage_domain.voltage                       1                       # Voltage in Volts

---------- End Simulation Statistics   ----------
