
******************************directory****************************
spec_dir: /home/cuihongwei/experiment/mcpat-gem5-master/spec2006/benchspec/CPU2006
run_dir:  /home/cuihongwei/experiment/mcpat-gem5-master/spec2006/benchspec/CPU2006/470.lbm/run/run_base_ref_amd64.0001
gem5_dir: /home/cuihongwei/experiment/experiment-gem5/raw-gem5
gem5_output_dir: /home/cuihongwei/experiment/experiment-gem5/raw-gem5/output/470.lbm/alpha-OLD-470.lbm-input1-190330-234423
benchmark_output:/home/cuihongwei/experiment/experiment-gem5/raw-gem5/output/470.lbm/alpha-OLD-470.lbm-input1-190330-234423
checkpoint_dir:/home/cuihongwei/experiment/experiment-gem5/pubs-gem5/output/alpha-470.lbm-checkpoint-input1

******************************benchmark****************************
target:     470.lbm
executable: lbm
args:       300 reference.dat 0 0 100_100_130_ldc.of
input:      
output:     /home/cuihongwei/experiment/experiment-gem5/raw-gem5/output/470.lbm/alpha-OLD-470.lbm-input1-190330-234423/lbm.out
errout:     /home/cuihongwei/experiment/experiment-gem5/raw-gem5/output/470.lbm/alpha-OLD-470.lbm-input1-190330-234423/lbm.err

******************************gem5****************************
arch:       /home/cuihongwei/experiment/experiment-gem5/raw-gem5/build/ALPHA/gem5.opt
config:     /home/cuihongwei/experiment/experiment-gem5/raw-gem5/configs/example/se.py
args:       --num-cpus=1 --mem-size=8GB --caches --l1d_size=32kB --l1d_assoc=8 --l1i_size=32kB --l1i_assoc=8 --l2cache --l2_size=2MB --l2_assoc=16 --at-instruction --checkpoint-restore=5000000000 --maxinsts=100000000 --cpu-type=DerivO3CPU
debugFlag:  --debug-flags=ShowRunning

******************************simulation****************************
start time:(year-mon-day hour-minute-second)19-03-30 23-44-23
gem5 Simulator System.  http://gem5.org
gem5 is copyrighted software; use the --copyright option for details.

gem5 compiled Mar 30 2019 20:24:53
gem5 started Mar 30 2019 23:44:23
gem5 executing on mprc-R730, pid 15134
command line: /home/cuihongwei/experiment/experiment-gem5/raw-gem5/build/ALPHA/gem5.opt --outdir=/home/cuihongwei/experiment/experiment-gem5/raw-gem5/output/470.lbm/alpha-OLD-470.lbm-input1-190330-234423 --debug-flags=ShowRunning /home/cuihongwei/experiment/experiment-gem5/raw-gem5/configs/example/se.py --num-cpus=1 --mem-size=8GB --caches --l1d_size=32kB --l1d_assoc=8 --l1i_size=32kB --l1i_assoc=8 --l2cache --l2_size=2MB --l2_assoc=16 --at-instruction --checkpoint-restore=5000000000 --maxinsts=100000000 --cpu-type=DerivO3CPU --checkpoint-dir=/home/cuihongwei/experiment/experiment-gem5/pubs-gem5/output/alpha-470.lbm-checkpoint-input1 --cmd=/home/cuihongwei/experiment/mcpat-gem5-master/spec2006/benchspec/CPU2006/470.lbm/run/build_peak_alpha.0001/lbm '--options=300 reference.dat 0 0 100_100_130_ldc.of' --output=/home/cuihongwei/experiment/experiment-gem5/raw-gem5/output/470.lbm/alpha-OLD-470.lbm-input1-190330-234423/lbm.out --input= --errout=/home/cuihongwei/experiment/experiment-gem5/raw-gem5/output/470.lbm/alpha-OLD-470.lbm-input1-190330-234423/lbm.err

Global frequency set at 1000000000000 ticks per second
Switch at curTick count:10000
Switched CPUS @ tick 5055705567500
switching cpus
**** REAL SIMULATION ****
5055705568000: system.switch_cpus: Raw Gem5 Running in Cycle:               0, Inst:               0
5055756016500: system.switch_cpus: Raw Gem5 Running in Cycle:          100000, Inst:           29886
5055806016500: system.switch_cpus: Raw Gem5 Running in Cycle:          200000, Inst:           71622
5055856016500: system.switch_cpus: Raw Gem5 Running in Cycle:          300000, Inst:          114982
5055906016500: system.switch_cpus: Raw Gem5 Running in Cycle:          400000, Inst:          157575
5055956016500: system.switch_cpus: Raw Gem5 Running in Cycle:          500000, Inst:          200879
5056006016500: system.switch_cpus: Raw Gem5 Running in Cycle:          600000, Inst:          243724
5056056016500: system.switch_cpus: Raw Gem5 Running in Cycle:          700000, Inst:          287013
5056106016500: system.switch_cpus: Raw Gem5 Running in Cycle:          800000, Inst:          330105
5056156016500: system.switch_cpus: Raw Gem5 Running in Cycle:          900000, Inst:          372825
5056206016500: system.switch_cpus: Raw Gem5 Running in Cycle:         1000000, Inst:          415655
5056256016500: system.switch_cpus: Raw Gem5 Running in Cycle:         1100000, Inst:          458248
5056306016500: system.switch_cpus: Raw Gem5 Running in Cycle:         1200000, Inst:          501087
5056356016500: system.switch_cpus: Raw Gem5 Running in Cycle:         1300000, Inst:          543908
5056406016500: system.switch_cpus: Raw Gem5 Running in Cycle:         1400000, Inst:          586908
5056456016500: system.switch_cpus: Raw Gem5 Running in Cycle:         1500000, Inst:          629736
5056506016500: system.switch_cpus: Raw Gem5 Running in Cycle:         1600000, Inst:          672802
5056556016500: system.switch_cpus: Raw Gem5 Running in Cycle:         1700000, Inst:          715854
5056606016500: system.switch_cpus: Raw Gem5 Running in Cycle:         1800000, Inst:          756535
5056656016500: system.switch_cpus: Raw Gem5 Running in Cycle:         1900000, Inst:          794799
5056706016500: system.switch_cpus: Raw Gem5 Running in Cycle:         2000000, Inst:          831467
5056756016500: system.switch_cpus: Raw Gem5 Running in Cycle:         2100000, Inst:          868755
5056806016500: system.switch_cpus: Raw Gem5 Running in Cycle:         2200000, Inst:          905429
5056856016500: system.switch_cpus: Raw Gem5 Running in Cycle:         2300000, Inst:          942802
5056906016500: system.switch_cpus: Raw Gem5 Running in Cycle:         2400000, Inst:          979865
5056956016500: system.switch_cpus: Raw Gem5 Running in Cycle:         2500000, Inst:         1016764
5057006016500: system.switch_cpus: Raw Gem5 Running in Cycle:         2600000, Inst:         1053821
5057056016500: system.switch_cpus: Raw Gem5 Running in Cycle:         2700000, Inst:         1090741
5057106016500: system.switch_cpus: Raw Gem5 Running in Cycle:         2800000, Inst:         1127561
5057156016500: system.switch_cpus: Raw Gem5 Running in Cycle:         2900000, Inst:         1164453
5057206016500: system.switch_cpus: Raw Gem5 Running in Cycle:         3000000, Inst:         1210353
5057256016500: system.switch_cpus: Raw Gem5 Running in Cycle:         3100000, Inst:         1220829
5057306016500: system.switch_cpus: Raw Gem5 Running in Cycle:         3200000, Inst:         1230765
5057356016500: system.switch_cpus: Raw Gem5 Running in Cycle:         3300000, Inst:         1240600
5057406016500: system.switch_cpus: Raw Gem5 Running in Cycle:         3400000, Inst:         1250210
5057456016500: system.switch_cpus: Raw Gem5 Running in Cycle:         3500000, Inst:         1260059
5057506016500: system.switch_cpus: Raw Gem5 Running in Cycle:         3600000, Inst:         1269761
5057556016500: system.switch_cpus: Raw Gem5 Running in Cycle:         3700000, Inst:         1279651
5057606016500: system.switch_cpus: Raw Gem5 Running in Cycle:         3800000, Inst:         1289426
5057656016500: system.switch_cpus: Raw Gem5 Running in Cycle:         3900000, Inst:         1299259
5057706016500: system.switch_cpus: Raw Gem5 Running in Cycle:         4000000, Inst:         1309081
5057756016500: system.switch_cpus: Raw Gem5 Running in Cycle:         4100000, Inst:         1318883
5057806016500: system.switch_cpus: Raw Gem5 Running in Cycle:         4200000, Inst:         1328665
5057856016500: system.switch_cpus: Raw Gem5 Running in Cycle:         4300000, Inst:         1338377
5057906016500: system.switch_cpus: Raw Gem5 Running in Cycle:         4400000, Inst:         1348279
5057956016500: system.switch_cpus: Raw Gem5 Running in Cycle:         4500000, Inst:         1358083
5058006016500: system.switch_cpus: Raw Gem5 Running in Cycle:         4600000, Inst:         1367972
5058056016500: system.switch_cpus: Raw Gem5 Running in Cycle:         4700000, Inst:         1377799
5058106016500: system.switch_cpus: Raw Gem5 Running in Cycle:         4800000, Inst:         1387489
5058156016500: system.switch_cpus: Raw Gem5 Running in Cycle:         4900000, Inst:         1397366
5058206016500: system.switch_cpus: Raw Gem5 Running in Cycle:         5000000, Inst:         1407097
5058256016500: system.switch_cpus: Raw Gem5 Running in Cycle:         5100000, Inst:         1416923
5058306016500: system.switch_cpus: Raw Gem5 Running in Cycle:         5200000, Inst:         1426741
5058356016500: system.switch_cpus: Raw Gem5 Running in Cycle:         5300000, Inst:         1436515
5058406016500: system.switch_cpus: Raw Gem5 Running in Cycle:         5400000, Inst:         1446396
5058456016500: system.switch_cpus: Raw Gem5 Running in Cycle:         5500000, Inst:         1456117
5058506016500: system.switch_cpus: Raw Gem5 Running in Cycle:         5600000, Inst:         1465943
5058556016500: system.switch_cpus: Raw Gem5 Running in Cycle:         5700000, Inst:         1475725
5058606016500: system.switch_cpus: Raw Gem5 Running in Cycle:         5800000, Inst:         1485553
5058656016500: system.switch_cpus: Raw Gem5 Running in Cycle:         5900000, Inst:         1495308
5058706016500: system.switch_cpus: Raw Gem5 Running in Cycle:         6000000, Inst:         1504998
5058756016500: system.switch_cpus: Raw Gem5 Running in Cycle:         6100000, Inst:         1514825
5058806016500: system.switch_cpus: Raw Gem5 Running in Cycle:         6200000, Inst:         1524583
5058856016500: system.switch_cpus: Raw Gem5 Running in Cycle:         6300000, Inst:         1534457
5058906016500: system.switch_cpus: Raw Gem5 Running in Cycle:         6400000, Inst:         1544125
5058956016500: system.switch_cpus: Raw Gem5 Running in Cycle:         6500000, Inst:         1553904
5059006016500: system.switch_cpus: Raw Gem5 Running in Cycle:         6600000, Inst:         1563739
5059056016500: system.switch_cpus: Raw Gem5 Running in Cycle:         6700000, Inst:         1573594
5059106016500: system.switch_cpus: Raw Gem5 Running in Cycle:         6800000, Inst:         1583455
5059156016500: system.switch_cpus: Raw Gem5 Running in Cycle:         6900000, Inst:         1593145
5059206016500: system.switch_cpus: Raw Gem5 Running in Cycle:         7000000, Inst:         1603008
5059256016500: system.switch_cpus: Raw Gem5 Running in Cycle:         7100000, Inst:         1612775
5059306016500: system.switch_cpus: Raw Gem5 Running in Cycle:         7200000, Inst:         1622557
5059356016500: system.switch_cpus: Raw Gem5 Running in Cycle:         7300000, Inst:         1632338
5059406016500: system.switch_cpus: Raw Gem5 Running in Cycle:         7400000, Inst:         1642059
5059456016500: system.switch_cpus: Raw Gem5 Running in Cycle:         7500000, Inst:         1651940
5059506016500: system.switch_cpus: Raw Gem5 Running in Cycle:         7600000, Inst:         1661779
5059556016500: system.switch_cpus: Raw Gem5 Running in Cycle:         7700000, Inst:         1671671
5059606016500: system.switch_cpus: Raw Gem5 Running in Cycle:         7800000, Inst:         1681554
5059656016500: system.switch_cpus: Raw Gem5 Running in Cycle:         7900000, Inst:         1691388
5059706016500: system.switch_cpus: Raw Gem5 Running in Cycle:         8000000, Inst:         1701241
5059756016500: system.switch_cpus: Raw Gem5 Running in Cycle:         8100000, Inst:         1710980
5059806016500: system.switch_cpus: Raw Gem5 Running in Cycle:         8200000, Inst:         1720896
5059856016500: system.switch_cpus: Raw Gem5 Running in Cycle:         8300000, Inst:         1730688
5059906016500: system.switch_cpus: Raw Gem5 Running in Cycle:         8400000, Inst:         1740547
5059956016500: system.switch_cpus: Raw Gem5 Running in Cycle:         8500000, Inst:         1750357
5060006016500: system.switch_cpus: Raw Gem5 Running in Cycle:         8600000, Inst:         1760065
5060056016500: system.switch_cpus: Raw Gem5 Running in Cycle:         8700000, Inst:         1769931
5060106016500: system.switch_cpus: Raw Gem5 Running in Cycle:         8800000, Inst:         1779671
5060156380500: system.switch_cpus: Raw Gem5 Running in Cycle:         8900000, Inst:         1788553
5060206380500: system.switch_cpus: Raw Gem5 Running in Cycle:         9000000, Inst:         1795993
5060256380500: system.switch_cpus: Raw Gem5 Running in Cycle:         9100000, Inst:         1805140
5060306380500: system.switch_cpus: Raw Gem5 Running in Cycle:         9200000, Inst:         1814773
5060356380500: system.switch_cpus: Raw Gem5 Running in Cycle:         9300000, Inst:         1824249
5060406380500: system.switch_cpus: Raw Gem5 Running in Cycle:         9400000, Inst:         1834116
5060456380500: system.switch_cpus: Raw Gem5 Running in Cycle:         9500000, Inst:         1844036
5060506380500: system.switch_cpus: Raw Gem5 Running in Cycle:         9600000, Inst:         1853319
5060556380500: system.switch_cpus: Raw Gem5 Running in Cycle:         9700000, Inst:         1863121
5060606380500: system.switch_cpus: Raw Gem5 Running in Cycle:         9800000, Inst:         1872595
5060656380500: system.switch_cpus: Raw Gem5 Running in Cycle:         9900000, Inst:         1882501
5060706380500: system.switch_cpus: Raw Gem5 Running in Cycle:        10000000, Inst:         1892240
5060756380500: system.switch_cpus: Raw Gem5 Running in Cycle:        10100000, Inst:         1901527
5060806380500: system.switch_cpus: Raw Gem5 Running in Cycle:        10200000, Inst:         1911215
5060856380500: system.switch_cpus: Raw Gem5 Running in Cycle:        10300000, Inst:         1920805
5060906380500: system.switch_cpus: Raw Gem5 Running in Cycle:        10400000, Inst:         1930793
5060956380500: system.switch_cpus: Raw Gem5 Running in Cycle:        10500000, Inst:         1940299
5061006380500: system.switch_cpus: Raw Gem5 Running in Cycle:        10600000, Inst:         1949781
5061056380500: system.switch_cpus: Raw Gem5 Running in Cycle:        10700000, Inst:         1959266
5061106380500: system.switch_cpus: Raw Gem5 Running in Cycle:        10800000, Inst:         1968673
5061156380500: system.switch_cpus: Raw Gem5 Running in Cycle:        10900000, Inst:         1978361
5061206380500: system.switch_cpus: Raw Gem5 Running in Cycle:        11000000, Inst:         1988065
5061256380500: system.switch_cpus: Raw Gem5 Running in Cycle:        11100000, Inst:         1997804
5061306380500: system.switch_cpus: Raw Gem5 Running in Cycle:        11200000, Inst:         2007445
5061356380500: system.switch_cpus: Raw Gem5 Running in Cycle:        11300000, Inst:         2017294
5061406380500: system.switch_cpus: Raw Gem5 Running in Cycle:        11400000, Inst:         2026959
5061456380500: system.switch_cpus: Raw Gem5 Running in Cycle:        11500000, Inst:         2036761
5061506380500: system.switch_cpus: Raw Gem5 Running in Cycle:        11600000, Inst:         2046498
5061556380500: system.switch_cpus: Raw Gem5 Running in Cycle:        11700000, Inst:         2056288
5061606380500: system.switch_cpus: Raw Gem5 Running in Cycle:        11800000, Inst:         2066059
5061656380500: system.switch_cpus: Raw Gem5 Running in Cycle:        11900000, Inst:         2075774
5061706380500: system.switch_cpus: Raw Gem5 Running in Cycle:        12000000, Inst:         2085557
5061756380500: system.switch_cpus: Raw Gem5 Running in Cycle:        12100000, Inst:         2095290
5061806380500: system.switch_cpus: Raw Gem5 Running in Cycle:        12200000, Inst:         2104980
5061856380500: system.switch_cpus: Raw Gem5 Running in Cycle:        12300000, Inst:         2114851
5061906380500: system.switch_cpus: Raw Gem5 Running in Cycle:        12400000, Inst:         2124566
5061956380500: system.switch_cpus: Raw Gem5 Running in Cycle:        12500000, Inst:         2134370
5062006380500: system.switch_cpus: Raw Gem5 Running in Cycle:        12600000, Inst:         2144119
5062056380500: system.switch_cpus: Raw Gem5 Running in Cycle:        12700000, Inst:         2153923
5062106380500: system.switch_cpus: Raw Gem5 Running in Cycle:        12800000, Inst:         2163692
5062156380500: system.switch_cpus: Raw Gem5 Running in Cycle:        12900000, Inst:         2173447
5062206380500: system.switch_cpus: Raw Gem5 Running in Cycle:        13000000, Inst:         2183164
5062256380500: system.switch_cpus: Raw Gem5 Running in Cycle:        13100000, Inst:         2192876
5062306380500: system.switch_cpus: Raw Gem5 Running in Cycle:        13200000, Inst:         2202656
5062356380500: system.switch_cpus: Raw Gem5 Running in Cycle:        13300000, Inst:         2212323
5062406380500: system.switch_cpus: Raw Gem5 Running in Cycle:        13400000, Inst:         2222174
5062456380500: system.switch_cpus: Raw Gem5 Running in Cycle:        13500000, Inst:         2231925
5062506380500: system.switch_cpus: Raw Gem5 Running in Cycle:        13600000, Inst:         2241619
5062556380500: system.switch_cpus: Raw Gem5 Running in Cycle:        13700000, Inst:         2251450
5062606380500: system.switch_cpus: Raw Gem5 Running in Cycle:        13800000, Inst:         2261161
5062656380500: system.switch_cpus: Raw Gem5 Running in Cycle:        13900000, Inst:         2270917
5062706380500: system.switch_cpus: Raw Gem5 Running in Cycle:        14000000, Inst:         2280689
5062756380500: system.switch_cpus: Raw Gem5 Running in Cycle:        14100000, Inst:         2290405
5062806380500: system.switch_cpus: Raw Gem5 Running in Cycle:        14200000, Inst:         2300150
5062856380500: system.switch_cpus: Raw Gem5 Running in Cycle:        14300000, Inst:         2309840
5062906380500: system.switch_cpus: Raw Gem5 Running in Cycle:        14400000, Inst:         2319677
5062956380500: system.switch_cpus: Raw Gem5 Running in Cycle:        14500000, Inst:         2329426
5063006380500: system.switch_cpus: Raw Gem5 Running in Cycle:        14600000, Inst:         2339136
5063056380500: system.switch_cpus: Raw Gem5 Running in Cycle:        14700000, Inst:         2348828
5063106380500: system.switch_cpus: Raw Gem5 Running in Cycle:        14800000, Inst:         2358551
5063156380500: system.switch_cpus: Raw Gem5 Running in Cycle:        14900000, Inst:         2390226
5063206380500: system.switch_cpus: Raw Gem5 Running in Cycle:        15000000, Inst:         2427714
5063256380500: system.switch_cpus: Raw Gem5 Running in Cycle:        15100000, Inst:         2464291
5063306380500: system.switch_cpus: Raw Gem5 Running in Cycle:        15200000, Inst:         2499789
5063356380500: system.switch_cpus: Raw Gem5 Running in Cycle:        15300000, Inst:         2536357
5063406380500: system.switch_cpus: Raw Gem5 Running in Cycle:        15400000, Inst:         2571840
5063456380500: system.switch_cpus: Raw Gem5 Running in Cycle:        15500000, Inst:         2608290
5063506380500: system.switch_cpus: Raw Gem5 Running in Cycle:        15600000, Inst:         2644143
5063556380500: system.switch_cpus: Raw Gem5 Running in Cycle:        15700000, Inst:         2680347
5063606380500: system.switch_cpus: Raw Gem5 Running in Cycle:        15800000, Inst:         2716451
5063656380500: system.switch_cpus: Raw Gem5 Running in Cycle:        15900000, Inst:         2752172
5063706380500: system.switch_cpus: Raw Gem5 Running in Cycle:        16000000, Inst:         2788512
5063756380500: system.switch_cpus: Raw Gem5 Running in Cycle:        16100000, Inst:         2824663
5063806380500: system.switch_cpus: Raw Gem5 Running in Cycle:        16200000, Inst:         2860593
5063856380500: system.switch_cpus: Raw Gem5 Running in Cycle:        16300000, Inst:         2896778
5063906380500: system.switch_cpus: Raw Gem5 Running in Cycle:        16400000, Inst:         2932644
5063956380500: system.switch_cpus: Raw Gem5 Running in Cycle:        16500000, Inst:         2968379
5064006380500: system.switch_cpus: Raw Gem5 Running in Cycle:        16600000, Inst:         3004252
5064056380500: system.switch_cpus: Raw Gem5 Running in Cycle:        16700000, Inst:         3040208
5064106380500: system.switch_cpus: Raw Gem5 Running in Cycle:        16800000, Inst:         3076308
5064156380500: system.switch_cpus: Raw Gem5 Running in Cycle:        16900000, Inst:         3112027
5064206380500: system.switch_cpus: Raw Gem5 Running in Cycle:        17000000, Inst:         3148374
5064256380500: system.switch_cpus: Raw Gem5 Running in Cycle:        17100000, Inst:         3184562
5064306380500: system.switch_cpus: Raw Gem5 Running in Cycle:        17200000, Inst:         3220609
5064356380500: system.switch_cpus: Raw Gem5 Running in Cycle:        17300000, Inst:         3256634
5064406380500: system.switch_cpus: Raw Gem5 Running in Cycle:        17400000, Inst:         3292828
5064456380500: system.switch_cpus: Raw Gem5 Running in Cycle:        17500000, Inst:         3329168
5064506380500: system.switch_cpus: Raw Gem5 Running in Cycle:        17600000, Inst:         3365377
5064556380500: system.switch_cpus: Raw Gem5 Running in Cycle:        17700000, Inst:         3401249
5064606380500: system.switch_cpus: Raw Gem5 Running in Cycle:        17800000, Inst:         3437428
5064656380500: system.switch_cpus: Raw Gem5 Running in Cycle:        17900000, Inst:         3473553
5064706380500: system.switch_cpus: Raw Gem5 Running in Cycle:        18000000, Inst:         3509509
5064756380500: system.switch_cpus: Raw Gem5 Running in Cycle:        18100000, Inst:         3545372
5064806380500: system.switch_cpus: Raw Gem5 Running in Cycle:        18200000, Inst:         3581086
5064856380500: system.switch_cpus: Raw Gem5 Running in Cycle:        18300000, Inst:         3616958
5064906380500: system.switch_cpus: Raw Gem5 Running in Cycle:        18400000, Inst:         3652813
5064956380500: system.switch_cpus: Raw Gem5 Running in Cycle:        18500000, Inst:         3688622
5065006380500: system.switch_cpus: Raw Gem5 Running in Cycle:        18600000, Inst:         3724759
5065056380500: system.switch_cpus: Raw Gem5 Running in Cycle:        18700000, Inst:         3761105
5065106380500: system.switch_cpus: Raw Gem5 Running in Cycle:        18800000, Inst:         3796815
5065156380500: system.switch_cpus: Raw Gem5 Running in Cycle:        18900000, Inst:         3833241
5065206380500: system.switch_cpus: Raw Gem5 Running in Cycle:        19000000, Inst:         3869113
5065256380500: system.switch_cpus: Raw Gem5 Running in Cycle:        19100000, Inst:         3904833
5065306380500: system.switch_cpus: Raw Gem5 Running in Cycle:        19200000, Inst:         3941188
5065356380500: system.switch_cpus: Raw Gem5 Running in Cycle:        19300000, Inst:         3976677
5065406380500: system.switch_cpus: Raw Gem5 Running in Cycle:        19400000, Inst:         4013013
5065456380500: system.switch_cpus: Raw Gem5 Running in Cycle:        19500000, Inst:         4048491
5065506380500: system.switch_cpus: Raw Gem5 Running in Cycle:        19600000, Inst:         4084600
5065556380500: system.switch_cpus: Raw Gem5 Running in Cycle:        19700000, Inst:         4120335
5065606380500: system.switch_cpus: Raw Gem5 Running in Cycle:        19800000, Inst:         4156439
5065656380500: system.switch_cpus: Raw Gem5 Running in Cycle:        19900000, Inst:         4192639
5065706380500: system.switch_cpus: Raw Gem5 Running in Cycle:        20000000, Inst:         4228979
5065756380500: system.switch_cpus: Raw Gem5 Running in Cycle:        20100000, Inst:         4264982
5065806380500: system.switch_cpus: Raw Gem5 Running in Cycle:        20200000, Inst:         4300798
5065856380500: system.switch_cpus: Raw Gem5 Running in Cycle:        20300000, Inst:         4336992
5065906380500: system.switch_cpus: Raw Gem5 Running in Cycle:        20400000, Inst:         4372871
5065956380500: system.switch_cpus: Raw Gem5 Running in Cycle:        20500000, Inst:         4408883
5066006380500: system.switch_cpus: Raw Gem5 Running in Cycle:        20600000, Inst:         4445066
5066056380500: system.switch_cpus: Raw Gem5 Running in Cycle:        20700000, Inst:         4481077
5066106380500: system.switch_cpus: Raw Gem5 Running in Cycle:        20800000, Inst:         4516859
5066156380500: system.switch_cpus: Raw Gem5 Running in Cycle:        20900000, Inst:         4552953
5066206380500: system.switch_cpus: Raw Gem5 Running in Cycle:        21000000, Inst:         4589161
5066256380500: system.switch_cpus: Raw Gem5 Running in Cycle:        21100000, Inst:         4625271
5066306380500: system.switch_cpus: Raw Gem5 Running in Cycle:        21200000, Inst:         4662536
5066356380500: system.switch_cpus: Raw Gem5 Running in Cycle:        21300000, Inst:         4694832
5066406380500: system.switch_cpus: Raw Gem5 Running in Cycle:        21400000, Inst:         4714985
5066456380500: system.switch_cpus: Raw Gem5 Running in Cycle:        21500000, Inst:         4765552
5066506380500: system.switch_cpus: Raw Gem5 Running in Cycle:        21600000, Inst:         4814543
5066556380500: system.switch_cpus: Raw Gem5 Running in Cycle:        21700000, Inst:         4865142
5066606380500: system.switch_cpus: Raw Gem5 Running in Cycle:        21800000, Inst:         4914804
5066656380500: system.switch_cpus: Raw Gem5 Running in Cycle:        21900000, Inst:         4965013
5066706380500: system.switch_cpus: Raw Gem5 Running in Cycle:        22000000, Inst:         5014727
5066756380500: system.switch_cpus: Raw Gem5 Running in Cycle:        22100000, Inst:         5065311
5066806380500: system.switch_cpus: Raw Gem5 Running in Cycle:        22200000, Inst:         5115727
5066856380500: system.switch_cpus: Raw Gem5 Running in Cycle:        22300000, Inst:         5165905
5066906380500: system.switch_cpus: Raw Gem5 Running in Cycle:        22400000, Inst:         5215910
5066956380500: system.switch_cpus: Raw Gem5 Running in Cycle:        22500000, Inst:         5266492
5067006380500: system.switch_cpus: Raw Gem5 Running in Cycle:        22600000, Inst:         5315835
5067056380500: system.switch_cpus: Raw Gem5 Running in Cycle:        22700000, Inst:         5367088
5067106380500: system.switch_cpus: Raw Gem5 Running in Cycle:        22800000, Inst:         5416429
5067156380500: system.switch_cpus: Raw Gem5 Running in Cycle:        22900000, Inst:         5466949
5067206380500: system.switch_cpus: Raw Gem5 Running in Cycle:        23000000, Inst:         5516424
5067256380500: system.switch_cpus: Raw Gem5 Running in Cycle:        23100000, Inst:         5566910
5067306380500: system.switch_cpus: Raw Gem5 Running in Cycle:        23200000, Inst:         5617274
5067356380500: system.switch_cpus: Raw Gem5 Running in Cycle:        23300000, Inst:         5667521
5067406380500: system.switch_cpus: Raw Gem5 Running in Cycle:        23400000, Inst:         5717537
5067456380500: system.switch_cpus: Raw Gem5 Running in Cycle:        23500000, Inst:         5767735
5067506380500: system.switch_cpus: Raw Gem5 Running in Cycle:        23600000, Inst:         5817451
5067556380500: system.switch_cpus: Raw Gem5 Running in Cycle:        23700000, Inst:         5867648
5067606380500: system.switch_cpus: Raw Gem5 Running in Cycle:        23800000, Inst:         5917663
5067656380500: system.switch_cpus: Raw Gem5 Running in Cycle:        23900000, Inst:         5967936
5067706380500: system.switch_cpus: Raw Gem5 Running in Cycle:        24000000, Inst:         6017613
5067756380500: system.switch_cpus: Raw Gem5 Running in Cycle:        24100000, Inst:         6068194
5067806380500: system.switch_cpus: Raw Gem5 Running in Cycle:        24200000, Inst:         6117864
5067856380500: system.switch_cpus: Raw Gem5 Running in Cycle:        24300000, Inst:         6167764
5067906380500: system.switch_cpus: Raw Gem5 Running in Cycle:        24400000, Inst:         6217431
5067956380500: system.switch_cpus: Raw Gem5 Running in Cycle:        24500000, Inst:         6267288
5068006380500: system.switch_cpus: Raw Gem5 Running in Cycle:        24600000, Inst:         6317686
5068056380500: system.switch_cpus: Raw Gem5 Running in Cycle:        24700000, Inst:         6368283
5068106380500: system.switch_cpus: Raw Gem5 Running in Cycle:        24800000, Inst:         6418298
5068156380500: system.switch_cpus: Raw Gem5 Running in Cycle:        24900000, Inst:         6468523
5068206380500: system.switch_cpus: Raw Gem5 Running in Cycle:        25000000, Inst:         6518901
5068256380500: system.switch_cpus: Raw Gem5 Running in Cycle:        25100000, Inst:         6569136
5068306380500: system.switch_cpus: Raw Gem5 Running in Cycle:        25200000, Inst:         6618809
5068356380500: system.switch_cpus: Raw Gem5 Running in Cycle:        25300000, Inst:         6669725
5068406380500: system.switch_cpus: Raw Gem5 Running in Cycle:        25400000, Inst:         6718706
5068456380500: system.switch_cpus: Raw Gem5 Running in Cycle:        25500000, Inst:         6769248
5068506380500: system.switch_cpus: Raw Gem5 Running in Cycle:        25600000, Inst:         6818620
5068556380500: system.switch_cpus: Raw Gem5 Running in Cycle:        25700000, Inst:         6868878
5068606380500: system.switch_cpus: Raw Gem5 Running in Cycle:        25800000, Inst:         6918540
5068656380500: system.switch_cpus: Raw Gem5 Running in Cycle:        25900000, Inst:         6968067
5068706380500: system.switch_cpus: Raw Gem5 Running in Cycle:        26000000, Inst:         7018019
5068756380500: system.switch_cpus: Raw Gem5 Running in Cycle:        26100000, Inst:         7068348
5068806380500: system.switch_cpus: Raw Gem5 Running in Cycle:        26200000, Inst:         7117686
5068856380500: system.switch_cpus: Raw Gem5 Running in Cycle:        26300000, Inst:         7168268
5068906380500: system.switch_cpus: Raw Gem5 Running in Cycle:        26400000, Inst:         7218276
5068956380500: system.switch_cpus: Raw Gem5 Running in Cycle:        26500000, Inst:         7268491
5069006380500: system.switch_cpus: Raw Gem5 Running in Cycle:        26600000, Inst:         7317467
5069056380500: system.switch_cpus: Raw Gem5 Running in Cycle:        26700000, Inst:         7367723
5069106380500: system.switch_cpus: Raw Gem5 Running in Cycle:        26800000, Inst:         7418061
5069156380500: system.switch_cpus: Raw Gem5 Running in Cycle:        26900000, Inst:         7468010
5069206380500: system.switch_cpus: Raw Gem5 Running in Cycle:        27000000, Inst:         7518219
5069256380500: system.switch_cpus: Raw Gem5 Running in Cycle:        27100000, Inst:         7567982
5069306380500: system.switch_cpus: Raw Gem5 Running in Cycle:        27200000, Inst:         7618098
5069356380500: system.switch_cpus: Raw Gem5 Running in Cycle:        27300000, Inst:         7668190
5069406380500: system.switch_cpus: Raw Gem5 Running in Cycle:        27400000, Inst:         7718431
5069456380500: system.switch_cpus: Raw Gem5 Running in Cycle:        27500000, Inst:         7767763
5069506380500: system.switch_cpus: Raw Gem5 Running in Cycle:        27600000, Inst:         7818963
5069556380500: system.switch_cpus: Raw Gem5 Running in Cycle:        27700000, Inst:         7869382
5069606380500: system.switch_cpus: Raw Gem5 Running in Cycle:        27800000, Inst:         7919622
5069656380500: system.switch_cpus: Raw Gem5 Running in Cycle:        27900000, Inst:         7969620
5069706380500: system.switch_cpus: Raw Gem5 Running in Cycle:        28000000, Inst:         7994335
5069756380500: system.switch_cpus: Raw Gem5 Running in Cycle:        28100000, Inst:         8023435
5069806380500: system.switch_cpus: Raw Gem5 Running in Cycle:        28200000, Inst:         8074012
5069856380500: system.switch_cpus: Raw Gem5 Running in Cycle:        28300000, Inst:         8124329
5069906380500: system.switch_cpus: Raw Gem5 Running in Cycle:        28400000, Inst:         8174710
5069956380500: system.switch_cpus: Raw Gem5 Running in Cycle:        28500000, Inst:         8225633
5070006380500: system.switch_cpus: Raw Gem5 Running in Cycle:        28600000, Inst:         8274958
5070056380500: system.switch_cpus: Raw Gem5 Running in Cycle:        28700000, Inst:         8324524
5070106380500: system.switch_cpus: Raw Gem5 Running in Cycle:        28800000, Inst:         8373871
5070156380500: system.switch_cpus: Raw Gem5 Running in Cycle:        28900000, Inst:         8424752
5070206380500: system.switch_cpus: Raw Gem5 Running in Cycle:        29000000, Inst:         8474767
5070256380500: system.switch_cpus: Raw Gem5 Running in Cycle:        29100000, Inst:         8525384
5070306380500: system.switch_cpus: Raw Gem5 Running in Cycle:        29200000, Inst:         8575184
5070356380500: system.switch_cpus: Raw Gem5 Running in Cycle:        29300000, Inst:         8625971
5070406380500: system.switch_cpus: Raw Gem5 Running in Cycle:        29400000, Inst:         8675959
5070456380500: system.switch_cpus: Raw Gem5 Running in Cycle:        29500000, Inst:         8725859
5070506380500: system.switch_cpus: Raw Gem5 Running in Cycle:        29600000, Inst:         8775573
5070556380500: system.switch_cpus: Raw Gem5 Running in Cycle:        29700000, Inst:         8825458
5070606380500: system.switch_cpus: Raw Gem5 Running in Cycle:        29800000, Inst:         8875124
5070656380500: system.switch_cpus: Raw Gem5 Running in Cycle:        29900000, Inst:         8925378
5070706380500: system.switch_cpus: Raw Gem5 Running in Cycle:        30000000, Inst:         8975045
5070756380500: system.switch_cpus: Raw Gem5 Running in Cycle:        30100000, Inst:         9025706
5070806380500: system.switch_cpus: Raw Gem5 Running in Cycle:        30200000, Inst:         9075300
5070856380500: system.switch_cpus: Raw Gem5 Running in Cycle:        30300000, Inst:         9124859
5070906380500: system.switch_cpus: Raw Gem5 Running in Cycle:        30400000, Inst:         9175529
5070956380500: system.switch_cpus: Raw Gem5 Running in Cycle:        30500000, Inst:         9226478
5071006380500: system.switch_cpus: Raw Gem5 Running in Cycle:        30600000, Inst:         9275486
5071056380500: system.switch_cpus: Raw Gem5 Running in Cycle:        30700000, Inst:         9326011
5071106380500: system.switch_cpus: Raw Gem5 Running in Cycle:        30800000, Inst:         9375729
5071156380500: system.switch_cpus: Raw Gem5 Running in Cycle:        30900000, Inst:         9425965
5071206380500: system.switch_cpus: Raw Gem5 Running in Cycle:        31000000, Inst:         9475504
5071256380500: system.switch_cpus: Raw Gem5 Running in Cycle:        31100000, Inst:         9525512
5071306380500: system.switch_cpus: Raw Gem5 Running in Cycle:        31200000, Inst:         9575528
5071356380500: system.switch_cpus: Raw Gem5 Running in Cycle:        31300000, Inst:         9625452
5071406380500: system.switch_cpus: Raw Gem5 Running in Cycle:        31400000, Inst:         9676034
5071456380500: system.switch_cpus: Raw Gem5 Running in Cycle:        31500000, Inst:         9726054
5071506380500: system.switch_cpus: Raw Gem5 Running in Cycle:        31600000, Inst:         9775266
5071556380500: system.switch_cpus: Raw Gem5 Running in Cycle:        31700000, Inst:         9825395
5071606380500: system.switch_cpus: Raw Gem5 Running in Cycle:        31800000, Inst:         9876177
5071656380500: system.switch_cpus: Raw Gem5 Running in Cycle:        31900000, Inst:         9925130
5071706380500: system.switch_cpus: Raw Gem5 Running in Cycle:        32000000, Inst:         9975100
5071756380500: system.switch_cpus: Raw Gem5 Running in Cycle:        32100000, Inst:        10024426
5071806380500: system.switch_cpus: Raw Gem5 Running in Cycle:        32200000, Inst:        10074624
5071856380500: system.switch_cpus: Raw Gem5 Running in Cycle:        32300000, Inst:        10123973
5071906380500: system.switch_cpus: Raw Gem5 Running in Cycle:        32400000, Inst:        10174581
5071956380500: system.switch_cpus: Raw Gem5 Running in Cycle:        32500000, Inst:        10224595
5072006380500: system.switch_cpus: Raw Gem5 Running in Cycle:        32600000, Inst:        10275534
5072056380500: system.switch_cpus: Raw Gem5 Running in Cycle:        32700000, Inst:        10325191
5072106380500: system.switch_cpus: Raw Gem5 Running in Cycle:        32800000, Inst:        10375299
5072156380500: system.switch_cpus: Raw Gem5 Running in Cycle:        32900000, Inst:        10425463
5072206380500: system.switch_cpus: Raw Gem5 Running in Cycle:        33000000, Inst:        10475384
5072256380500: system.switch_cpus: Raw Gem5 Running in Cycle:        33100000, Inst:        10526048
5072306380500: system.switch_cpus: Raw Gem5 Running in Cycle:        33200000, Inst:        10576154
5072356380500: system.switch_cpus: Raw Gem5 Running in Cycle:        33300000, Inst:        10625971
5072406380500: system.switch_cpus: Raw Gem5 Running in Cycle:        33400000, Inst:        10675856
5072456380500: system.switch_cpus: Raw Gem5 Running in Cycle:        33500000, Inst:        10725538
5072506380500: system.switch_cpus: Raw Gem5 Running in Cycle:        33600000, Inst:        10776469
5072556380500: system.switch_cpus: Raw Gem5 Running in Cycle:        33700000, Inst:        10826807
5072606380500: system.switch_cpus: Raw Gem5 Running in Cycle:        33800000, Inst:        10876724
5072656380500: system.switch_cpus: Raw Gem5 Running in Cycle:        33900000, Inst:        10926695
5072706380500: system.switch_cpus: Raw Gem5 Running in Cycle:        34000000, Inst:        10977276
5072756380500: system.switch_cpus: Raw Gem5 Running in Cycle:        34100000, Inst:        11026982
5072806380500: system.switch_cpus: Raw Gem5 Running in Cycle:        34200000, Inst:        11076906
5072856380500: system.switch_cpus: Raw Gem5 Running in Cycle:        34300000, Inst:        11127231
5072906380500: system.switch_cpus: Raw Gem5 Running in Cycle:        34400000, Inst:        11176796
5072956380500: system.switch_cpus: Raw Gem5 Running in Cycle:        34500000, Inst:        11226128
5073006380500: system.switch_cpus: Raw Gem5 Running in Cycle:        34600000, Inst:        11277045
5073056380500: system.switch_cpus: Raw Gem5 Running in Cycle:        34700000, Inst:        11293753
5073106380500: system.switch_cpus: Raw Gem5 Running in Cycle:        34800000, Inst:        11330504
5073156380500: system.switch_cpus: Raw Gem5 Running in Cycle:        34900000, Inst:        11379849
5073206380500: system.switch_cpus: Raw Gem5 Running in Cycle:        35000000, Inst:        11429627
5073256380500: system.switch_cpus: Raw Gem5 Running in Cycle:        35100000, Inst:        11479407
5073306380500: system.switch_cpus: Raw Gem5 Running in Cycle:        35200000, Inst:        11529946
5073356380500: system.switch_cpus: Raw Gem5 Running in Cycle:        35300000, Inst:        11580361
5073406380500: system.switch_cpus: Raw Gem5 Running in Cycle:        35400000, Inst:        11630560
5073456380500: system.switch_cpus: Raw Gem5 Running in Cycle:        35500000, Inst:        11680264
5073506380500: system.switch_cpus: Raw Gem5 Running in Cycle:        35600000, Inst:        11730706
5073556380500: system.switch_cpus: Raw Gem5 Running in Cycle:        35700000, Inst:        11780513
5073606380500: system.switch_cpus: Raw Gem5 Running in Cycle:        35800000, Inst:        11831751
5073656380500: system.switch_cpus: Raw Gem5 Running in Cycle:        35900000, Inst:        11880401
5073706380500: system.switch_cpus: Raw Gem5 Running in Cycle:        36000000, Inst:        11930674
5073756380500: system.switch_cpus: Raw Gem5 Running in Cycle:        36100000, Inst:        11979335
5073806380500: system.switch_cpus: Raw Gem5 Running in Cycle:        36200000, Inst:        12029559
5073856380500: system.switch_cpus: Raw Gem5 Running in Cycle:        36300000, Inst:        12078848
5073906380500: system.switch_cpus: Raw Gem5 Running in Cycle:        36400000, Inst:        12128791
5073956380500: system.switch_cpus: Raw Gem5 Running in Cycle:        36500000, Inst:        12178779
5074006380500: system.switch_cpus: Raw Gem5 Running in Cycle:        36600000, Inst:        12228705
5074056380500: system.switch_cpus: Raw Gem5 Running in Cycle:        36700000, Inst:        12279447
5074106380500: system.switch_cpus: Raw Gem5 Running in Cycle:        36800000, Inst:        12329983
5074156380500: system.switch_cpus: Raw Gem5 Running in Cycle:        36900000, Inst:        12379832
5074206380500: system.switch_cpus: Raw Gem5 Running in Cycle:        37000000, Inst:        12430937
5074256380500: system.switch_cpus: Raw Gem5 Running in Cycle:        37100000, Inst:        12481631
5074306380500: system.switch_cpus: Raw Gem5 Running in Cycle:        37200000, Inst:        12532172
5074356380500: system.switch_cpus: Raw Gem5 Running in Cycle:        37300000, Inst:        12581189
5074406380500: system.switch_cpus: Raw Gem5 Running in Cycle:        37400000, Inst:        12631167
5074456380500: system.switch_cpus: Raw Gem5 Running in Cycle:        37500000, Inst:        12681461
5074506380500: system.switch_cpus: Raw Gem5 Running in Cycle:        37600000, Inst:        12731642
5074556380500: system.switch_cpus: Raw Gem5 Running in Cycle:        37700000, Inst:        12780991
5074606380500: system.switch_cpus: Raw Gem5 Running in Cycle:        37800000, Inst:        12831957
5074656380500: system.switch_cpus: Raw Gem5 Running in Cycle:        37900000, Inst:        12881960
5074706380500: system.switch_cpus: Raw Gem5 Running in Cycle:        38000000, Inst:        12932536
5074756380500: system.switch_cpus: Raw Gem5 Running in Cycle:        38100000, Inst:        12982976
5074806380500: system.switch_cpus: Raw Gem5 Running in Cycle:        38200000, Inst:        13033147
5074856380500: system.switch_cpus: Raw Gem5 Running in Cycle:        38300000, Inst:        13083163
5074906380500: system.switch_cpus: Raw Gem5 Running in Cycle:        38400000, Inst:        13133734
5074956380500: system.switch_cpus: Raw Gem5 Running in Cycle:        38500000, Inst:        13183401
5075006380500: system.switch_cpus: Raw Gem5 Running in Cycle:        38600000, Inst:        13234330
5075056380500: system.switch_cpus: Raw Gem5 Running in Cycle:        38700000, Inst:        13283971
5075106380500: system.switch_cpus: Raw Gem5 Running in Cycle:        38800000, Inst:        13333914
5075156380500: system.switch_cpus: Raw Gem5 Running in Cycle:        38900000, Inst:        13383527
5075206380500: system.switch_cpus: Raw Gem5 Running in Cycle:        39000000, Inst:        13433368
5075256380500: system.switch_cpus: Raw Gem5 Running in Cycle:        39100000, Inst:        13482881
5075306380500: system.switch_cpus: Raw Gem5 Running in Cycle:        39200000, Inst:        13533699
5075356380500: system.switch_cpus: Raw Gem5 Running in Cycle:        39300000, Inst:        13583775
5075406380500: system.switch_cpus: Raw Gem5 Running in Cycle:        39400000, Inst:        13634321
5075456380500: system.switch_cpus: Raw Gem5 Running in Cycle:        39500000, Inst:        13684009
5075506380500: system.switch_cpus: Raw Gem5 Running in Cycle:        39600000, Inst:        13733909
5075556380500: system.switch_cpus: Raw Gem5 Running in Cycle:        39700000, Inst:        13783908
5075606380500: system.switch_cpus: Raw Gem5 Running in Cycle:        39800000, Inst:        13834848
5075656380500: system.switch_cpus: Raw Gem5 Running in Cycle:        39900000, Inst:        13884510
5075706380500: system.switch_cpus: Raw Gem5 Running in Cycle:        40000000, Inst:        13934421
5075756380500: system.switch_cpus: Raw Gem5 Running in Cycle:        40100000, Inst:        13984086
5075806380500: system.switch_cpus: Raw Gem5 Running in Cycle:        40200000, Inst:        14034055
5075856380500: system.switch_cpus: Raw Gem5 Running in Cycle:        40300000, Inst:        14084252
5075906380500: system.switch_cpus: Raw Gem5 Running in Cycle:        40400000, Inst:        14134547
5075956380500: system.switch_cpus: Raw Gem5 Running in Cycle:        40500000, Inst:        14184263
5076006380500: system.switch_cpus: Raw Gem5 Running in Cycle:        40600000, Inst:        14234461
5076056380500: system.switch_cpus: Raw Gem5 Running in Cycle:        40700000, Inst:        14283483
5076106380500: system.switch_cpus: Raw Gem5 Running in Cycle:        40800000, Inst:        14333393
5076156380500: system.switch_cpus: Raw Gem5 Running in Cycle:        40900000, Inst:        14383068
5076206380500: system.switch_cpus: Raw Gem5 Running in Cycle:        41000000, Inst:        14433980
5076256380500: system.switch_cpus: Raw Gem5 Running in Cycle:        41100000, Inst:        14483382
5076306380500: system.switch_cpus: Raw Gem5 Running in Cycle:        41200000, Inst:        14533992
5076356380500: system.switch_cpus: Raw Gem5 Running in Cycle:        41300000, Inst:        14583334
5076406380500: system.switch_cpus: Raw Gem5 Running in Cycle:        41400000, Inst:        14593038
5076456380500: system.switch_cpus: Raw Gem5 Running in Cycle:        41500000, Inst:        14636694
5076506380500: system.switch_cpus: Raw Gem5 Running in Cycle:        41600000, Inst:        14687276
5076556380500: system.switch_cpus: Raw Gem5 Running in Cycle:        41700000, Inst:        14737246
5076606380500: system.switch_cpus: Raw Gem5 Running in Cycle:        41800000, Inst:        14787146
5076656380500: system.switch_cpus: Raw Gem5 Running in Cycle:        41900000, Inst:        14837161
5076706380500: system.switch_cpus: Raw Gem5 Running in Cycle:        42000000, Inst:        14887743
5076756380500: system.switch_cpus: Raw Gem5 Running in Cycle:        42100000, Inst:        14938465
5076806380500: system.switch_cpus: Raw Gem5 Running in Cycle:        42200000, Inst:        14989394
5076856380500: system.switch_cpus: Raw Gem5 Running in Cycle:        42300000, Inst:        15037500
5076906380500: system.switch_cpus: Raw Gem5 Running in Cycle:        42400000, Inst:        15087273
5076956380500: system.switch_cpus: Raw Gem5 Running in Cycle:        42500000, Inst:        15136882
5077006380500: system.switch_cpus: Raw Gem5 Running in Cycle:        42600000, Inst:        15187185
5077056380500: system.switch_cpus: Raw Gem5 Running in Cycle:        42700000, Inst:        15236508
5077106380500: system.switch_cpus: Raw Gem5 Running in Cycle:        42800000, Inst:        15286743
5077156380500: system.switch_cpus: Raw Gem5 Running in Cycle:        42900000, Inst:        15336433
5077206380500: system.switch_cpus: Raw Gem5 Running in Cycle:        43000000, Inst:        15386657
5077256380500: system.switch_cpus: Raw Gem5 Running in Cycle:        43100000, Inst:        15436709
5077306380500: system.switch_cpus: Raw Gem5 Running in Cycle:        43200000, Inst:        15488276
5077356380500: system.switch_cpus: Raw Gem5 Running in Cycle:        43300000, Inst:        15538605
5077406380500: system.switch_cpus: Raw Gem5 Running in Cycle:        43400000, Inst:        15588895
5077456380500: system.switch_cpus: Raw Gem5 Running in Cycle:        43500000, Inst:        15638860
5077506380500: system.switch_cpus: Raw Gem5 Running in Cycle:        43600000, Inst:        15689474
5077556380500: system.switch_cpus: Raw Gem5 Running in Cycle:        43700000, Inst:        15739482
5077606380500: system.switch_cpus: Raw Gem5 Running in Cycle:        43800000, Inst:        15790746
5077656380500: system.switch_cpus: Raw Gem5 Running in Cycle:        43900000, Inst:        15841054
5077706380500: system.switch_cpus: Raw Gem5 Running in Cycle:        44000000, Inst:        15892030
5077756380500: system.switch_cpus: Raw Gem5 Running in Cycle:        44100000, Inst:        15941362
5077806380500: system.switch_cpus: Raw Gem5 Running in Cycle:        44200000, Inst:        15991607
5077856380500: system.switch_cpus: Raw Gem5 Running in Cycle:        44300000, Inst:        16041287
5077906380500: system.switch_cpus: Raw Gem5 Running in Cycle:        44400000, Inst:        16091485
5077956380500: system.switch_cpus: Raw Gem5 Running in Cycle:        44500000, Inst:        16141201
5078006380500: system.switch_cpus: Raw Gem5 Running in Cycle:        44600000, Inst:        16191766
5078056380500: system.switch_cpus: Raw Gem5 Running in Cycle:        44700000, Inst:        16241113
5078106380500: system.switch_cpus: Raw Gem5 Running in Cycle:        44800000, Inst:        16291013
5078156380500: system.switch_cpus: Raw Gem5 Running in Cycle:        44900000, Inst:        16341370
5078206380500: system.switch_cpus: Raw Gem5 Running in Cycle:        45000000, Inst:        16391253
5078256380500: system.switch_cpus: Raw Gem5 Running in Cycle:        45100000, Inst:        16440932
5078306380500: system.switch_cpus: Raw Gem5 Running in Cycle:        45200000, Inst:        16492088
5078356380500: system.switch_cpus: Raw Gem5 Running in Cycle:        45300000, Inst:        16541837
5078406380500: system.switch_cpus: Raw Gem5 Running in Cycle:        45400000, Inst:        16591763
5078456380500: system.switch_cpus: Raw Gem5 Running in Cycle:        45500000, Inst:        16641393
5078506380500: system.switch_cpus: Raw Gem5 Running in Cycle:        45600000, Inst:        16691677
5078556380500: system.switch_cpus: Raw Gem5 Running in Cycle:        45700000, Inst:        16741081
5078606380500: system.switch_cpus: Raw Gem5 Running in Cycle:        45800000, Inst:        16790947
5078656380500: system.switch_cpus: Raw Gem5 Running in Cycle:        45900000, Inst:        16841605
5078706380500: system.switch_cpus: Raw Gem5 Running in Cycle:        46000000, Inst:        16891846
5078756380500: system.switch_cpus: Raw Gem5 Running in Cycle:        46100000, Inst:        16941860
5078806380500: system.switch_cpus: Raw Gem5 Running in Cycle:        46200000, Inst:        16992442
5078856380500: system.switch_cpus: Raw Gem5 Running in Cycle:        46300000, Inst:        17042704
5078906380500: system.switch_cpus: Raw Gem5 Running in Cycle:        46400000, Inst:        17093038
5078956380500: system.switch_cpus: Raw Gem5 Running in Cycle:        46500000, Inst:        17142940
5079006380500: system.switch_cpus: Raw Gem5 Running in Cycle:        46600000, Inst:        17193028
5079056380500: system.switch_cpus: Raw Gem5 Running in Cycle:        46700000, Inst:        17243648
5079106380500: system.switch_cpus: Raw Gem5 Running in Cycle:        46800000, Inst:        17294204
5079156380500: system.switch_cpus: Raw Gem5 Running in Cycle:        46900000, Inst:        17344201
5079206380500: system.switch_cpus: Raw Gem5 Running in Cycle:        47000000, Inst:        17394161
5079256380500: system.switch_cpus: Raw Gem5 Running in Cycle:        47100000, Inst:        17444728
5079306380500: system.switch_cpus: Raw Gem5 Running in Cycle:        47200000, Inst:        17494064
5079356380500: system.switch_cpus: Raw Gem5 Running in Cycle:        47300000, Inst:        17543282
5079406380500: system.switch_cpus: Raw Gem5 Running in Cycle:        47400000, Inst:        17593290
5079456380500: system.switch_cpus: Raw Gem5 Running in Cycle:        47500000, Inst:        17644166
5079506380500: system.switch_cpus: Raw Gem5 Running in Cycle:        47600000, Inst:        17694200
5079556380500: system.switch_cpus: Raw Gem5 Running in Cycle:        47700000, Inst:        17744063
5079606380500: system.switch_cpus: Raw Gem5 Running in Cycle:        47800000, Inst:        17794158
5079656380500: system.switch_cpus: Raw Gem5 Running in Cycle:        47900000, Inst:        17844723
5079706380500: system.switch_cpus: Raw Gem5 Running in Cycle:        48000000, Inst:        17883321
5079756380500: system.switch_cpus: Raw Gem5 Running in Cycle:        48100000, Inst:        17897241
5079806380500: system.switch_cpus: Raw Gem5 Running in Cycle:        48200000, Inst:        17946847
5079856380500: system.switch_cpus: Raw Gem5 Running in Cycle:        48300000, Inst:        17996861
5079906380500: system.switch_cpus: Raw Gem5 Running in Cycle:        48400000, Inst:        18047426
5079956380500: system.switch_cpus: Raw Gem5 Running in Cycle:        48500000, Inst:        18096758
5080006380500: system.switch_cpus: Raw Gem5 Running in Cycle:        48600000, Inst:        18146999
5080056380500: system.switch_cpus: Raw Gem5 Running in Cycle:        48700000, Inst:        18197030
5080106380500: system.switch_cpus: Raw Gem5 Running in Cycle:        48800000, Inst:        18247568
5080156380500: system.switch_cpus: Raw Gem5 Running in Cycle:        48900000, Inst:        18297967
5080206380500: system.switch_cpus: Raw Gem5 Running in Cycle:        49000000, Inst:        18348919
5080256380500: system.switch_cpus: Raw Gem5 Running in Cycle:        49100000, Inst:        18398887
5080306380500: system.switch_cpus: Raw Gem5 Running in Cycle:        49200000, Inst:        18448446
5080356380500: system.switch_cpus: Raw Gem5 Running in Cycle:        49300000, Inst:        18498801
5080406380500: system.switch_cpus: Raw Gem5 Running in Cycle:        49400000, Inst:        18549677
5080456380500: system.switch_cpus: Raw Gem5 Running in Cycle:        49500000, Inst:        18599406
5080506380500: system.switch_cpus: Raw Gem5 Running in Cycle:        49600000, Inst:        18648589
5080556380500: system.switch_cpus: Raw Gem5 Running in Cycle:        49700000, Inst:        18698303
5080606380500: system.switch_cpus: Raw Gem5 Running in Cycle:        49800000, Inst:        18748887
5080656380500: system.switch_cpus: Raw Gem5 Running in Cycle:        49900000, Inst:        18798219
5080706380500: system.switch_cpus: Raw Gem5 Running in Cycle:        50000000, Inst:        18848790
5080756380500: system.switch_cpus: Raw Gem5 Running in Cycle:        50100000, Inst:        18898457
5080806380500: system.switch_cpus: Raw Gem5 Running in Cycle:        50200000, Inst:        18949380
5080856380500: system.switch_cpus: Raw Gem5 Running in Cycle:        50300000, Inst:        18999213
5080906380500: system.switch_cpus: Raw Gem5 Running in Cycle:        50400000, Inst:        19050317
5080956380500: system.switch_cpus: Raw Gem5 Running in Cycle:        50500000, Inst:        19100066
5081006380500: system.switch_cpus: Raw Gem5 Running in Cycle:        50600000, Inst:        19150882
5081056380500: system.switch_cpus: Raw Gem5 Running in Cycle:        50700000, Inst:        19200586
5081106380500: system.switch_cpus: Raw Gem5 Running in Cycle:        50800000, Inst:        19250844
5081156380500: system.switch_cpus: Raw Gem5 Running in Cycle:        50900000, Inst:        19300858
5081206380500: system.switch_cpus: Raw Gem5 Running in Cycle:        51000000, Inst:        19351047
5081256380500: system.switch_cpus: Raw Gem5 Running in Cycle:        51100000, Inst:        19400984
5081306380500: system.switch_cpus: Raw Gem5 Running in Cycle:        51200000, Inst:        19451013
5081356380500: system.switch_cpus: Raw Gem5 Running in Cycle:        51300000, Inst:        19500896
5081406380500: system.switch_cpus: Raw Gem5 Running in Cycle:        51400000, Inst:        19550910
5081456380500: system.switch_cpus: Raw Gem5 Running in Cycle:        51500000, Inst:        19600825
5081506380500: system.switch_cpus: Raw Gem5 Running in Cycle:        51600000, Inst:        19650830
5081556380500: system.switch_cpus: Raw Gem5 Running in Cycle:        51700000, Inst:        19701380
5081606380500: system.switch_cpus: Raw Gem5 Running in Cycle:        51800000, Inst:        19750744
5081656380500: system.switch_cpus: Raw Gem5 Running in Cycle:        51900000, Inst:        19801399
5081706380500: system.switch_cpus: Raw Gem5 Running in Cycle:        52000000, Inst:        19851675
5081756380500: system.switch_cpus: Raw Gem5 Running in Cycle:        52100000, Inst:        19902124
5081806380500: system.switch_cpus: Raw Gem5 Running in Cycle:        52200000, Inst:        19952612
5081856380500: system.switch_cpus: Raw Gem5 Running in Cycle:        52300000, Inst:        20002512
5081906380500: system.switch_cpus: Raw Gem5 Running in Cycle:        52400000, Inst:        20052159
5081956380500: system.switch_cpus: Raw Gem5 Running in Cycle:        52500000, Inst:        20102441
5082006380500: system.switch_cpus: Raw Gem5 Running in Cycle:        52600000, Inst:        20152073
5082056380500: system.switch_cpus: Raw Gem5 Running in Cycle:        52700000, Inst:        20202357
5082106380500: system.switch_cpus: Raw Gem5 Running in Cycle:        52800000, Inst:        20252695
5082156380500: system.switch_cpus: Raw Gem5 Running in Cycle:        52900000, Inst:        20302326
5082206380500: system.switch_cpus: Raw Gem5 Running in Cycle:        53000000, Inst:        20352334
5082256380500: system.switch_cpus: Raw Gem5 Running in Cycle:        53100000, Inst:        20402183
5082306380500: system.switch_cpus: Raw Gem5 Running in Cycle:        53200000, Inst:        20452182
5082356380500: system.switch_cpus: Raw Gem5 Running in Cycle:        53300000, Inst:        20502432
5082406380500: system.switch_cpus: Raw Gem5 Running in Cycle:        53400000, Inst:        20552096
5082456380500: system.switch_cpus: Raw Gem5 Running in Cycle:        53500000, Inst:        20602337
5082506380500: system.switch_cpus: Raw Gem5 Running in Cycle:        53600000, Inst:        20652351
5082556380500: system.switch_cpus: Raw Gem5 Running in Cycle:        53700000, Inst:        20703011
5082606380500: system.switch_cpus: Raw Gem5 Running in Cycle:        53800000, Inst:        20752750
5082656380500: system.switch_cpus: Raw Gem5 Running in Cycle:        53900000, Inst:        20804211
5082706380500: system.switch_cpus: Raw Gem5 Running in Cycle:        54000000, Inst:        20854329
5082756380500: system.switch_cpus: Raw Gem5 Running in Cycle:        54100000, Inst:        20905163
5082806380500: system.switch_cpus: Raw Gem5 Running in Cycle:        54200000, Inst:        20954480
5082856380500: system.switch_cpus: Raw Gem5 Running in Cycle:        54300000, Inst:        21005064
5082906380500: system.switch_cpus: Raw Gem5 Running in Cycle:        54400000, Inst:        21055082
5082956380500: system.switch_cpus: Raw Gem5 Running in Cycle:        54500000, Inst:        21106357
5083006380500: system.switch_cpus: Raw Gem5 Running in Cycle:        54600000, Inst:        21156030
5083056380500: system.switch_cpus: Raw Gem5 Running in Cycle:        54700000, Inst:        21183738
5083106380500: system.switch_cpus: Raw Gem5 Running in Cycle:        54800000, Inst:        21209102
5083156380500: system.switch_cpus: Raw Gem5 Running in Cycle:        54900000, Inst:        21259484
5083206380500: system.switch_cpus: Raw Gem5 Running in Cycle:        55000000, Inst:        21309776
5083256380500: system.switch_cpus: Raw Gem5 Running in Cycle:        55100000, Inst:        21359739
5083306380500: system.switch_cpus: Raw Gem5 Running in Cycle:        55200000, Inst:        21410338
5083356380500: system.switch_cpus: Raw Gem5 Running in Cycle:        55300000, Inst:        21459653
5083406380500: system.switch_cpus: Raw Gem5 Running in Cycle:        55400000, Inst:        21509911
5083456380500: system.switch_cpus: Raw Gem5 Running in Cycle:        55500000, Inst:        21559241
5083506380500: system.switch_cpus: Raw Gem5 Running in Cycle:        55600000, Inst:        21610149
5083556380500: system.switch_cpus: Raw Gem5 Running in Cycle:        55700000, Inst:        21659459
5083606380500: system.switch_cpus: Raw Gem5 Running in Cycle:        55800000, Inst:        21709427
5083656380500: system.switch_cpus: Raw Gem5 Running in Cycle:        55900000, Inst:        21759736
5083706380500: system.switch_cpus: Raw Gem5 Running in Cycle:        56000000, Inst:        21809312
5083756380500: system.switch_cpus: Raw Gem5 Running in Cycle:        56100000, Inst:        21858530
5083806380500: system.switch_cpus: Raw Gem5 Running in Cycle:        56200000, Inst:        21908186
5083856380500: system.switch_cpus: Raw Gem5 Running in Cycle:        56300000, Inst:        21958783
5083906380500: system.switch_cpus: Raw Gem5 Running in Cycle:        56400000, Inst:        22008458
5083956380500: system.switch_cpus: Raw Gem5 Running in Cycle:        56500000, Inst:        22058350
5084006380500: system.switch_cpus: Raw Gem5 Running in Cycle:        56600000, Inst:        22108355
5084056380500: system.switch_cpus: Raw Gem5 Running in Cycle:        56700000, Inst:        22159592
5084106380500: system.switch_cpus: Raw Gem5 Running in Cycle:        56800000, Inst:        22209309
5084156380500: system.switch_cpus: Raw Gem5 Running in Cycle:        56900000, Inst:        22260294
5084206380500: system.switch_cpus: Raw Gem5 Running in Cycle:        57000000, Inst:        22309903
5084256380500: system.switch_cpus: Raw Gem5 Running in Cycle:        57100000, Inst:        22360828
5084306380500: system.switch_cpus: Raw Gem5 Running in Cycle:        57200000, Inst:        22409817
5084356380500: system.switch_cpus: Raw Gem5 Running in Cycle:        57300000, Inst:        22460725
5084406380500: system.switch_cpus: Raw Gem5 Running in Cycle:        57400000, Inst:        22510413
5084456380500: system.switch_cpus: Raw Gem5 Running in Cycle:        57500000, Inst:        22560986
5084506380500: system.switch_cpus: Raw Gem5 Running in Cycle:        57600000, Inst:        22610653
5084556380500: system.switch_cpus: Raw Gem5 Running in Cycle:        57700000, Inst:        22661252
5084606380500: system.switch_cpus: Raw Gem5 Running in Cycle:        57800000, Inst:        22711222
5084656380500: system.switch_cpus: Raw Gem5 Running in Cycle:        57900000, Inst:        22761228
5084706380500: system.switch_cpus: Raw Gem5 Running in Cycle:        58000000, Inst:        22811180
5084756380500: system.switch_cpus: Raw Gem5 Running in Cycle:        58100000, Inst:        22861419
5084806380500: system.switch_cpus: Raw Gem5 Running in Cycle:        58200000, Inst:        22910912
5084856380500: system.switch_cpus: Raw Gem5 Running in Cycle:        58300000, Inst:        22961676
5084906380500: system.switch_cpus: Raw Gem5 Running in Cycle:        58400000, Inst:        23011338
5084956380500: system.switch_cpus: Raw Gem5 Running in Cycle:        58500000, Inst:        23061573
5085006380500: system.switch_cpus: Raw Gem5 Running in Cycle:        58600000, Inst:        23111246
5085056380500: system.switch_cpus: Raw Gem5 Running in Cycle:        58700000, Inst:        23161504
5085106380500: system.switch_cpus: Raw Gem5 Running in Cycle:        58800000, Inst:        23212200
5085156380500: system.switch_cpus: Raw Gem5 Running in Cycle:        58900000, Inst:        23261757
5085206380500: system.switch_cpus: Raw Gem5 Running in Cycle:        59000000, Inst:        23311713
5085256380500: system.switch_cpus: Raw Gem5 Running in Cycle:        59100000, Inst:        23361997
5085306380500: system.switch_cpus: Raw Gem5 Running in Cycle:        59200000, Inst:        23412090
5085356380500: system.switch_cpus: Raw Gem5 Running in Cycle:        59300000, Inst:        23462567
5085406380500: system.switch_cpus: Raw Gem5 Running in Cycle:        59400000, Inst:        23512281
5085456380500: system.switch_cpus: Raw Gem5 Running in Cycle:        59500000, Inst:        23562848
5085506380500: system.switch_cpus: Raw Gem5 Running in Cycle:        59600000, Inst:        23612521
5085556380500: system.switch_cpus: Raw Gem5 Running in Cycle:        59700000, Inst:        23663077
5085606380500: system.switch_cpus: Raw Gem5 Running in Cycle:        59800000, Inst:        23712791
5085656380500: system.switch_cpus: Raw Gem5 Running in Cycle:        59900000, Inst:        23763716
5085706380500: system.switch_cpus: Raw Gem5 Running in Cycle:        60000000, Inst:        23813048
5085756380500: system.switch_cpus: Raw Gem5 Running in Cycle:        60100000, Inst:        23862905
5085806380500: system.switch_cpus: Raw Gem5 Running in Cycle:        60200000, Inst:        23912301
5085856380500: system.switch_cpus: Raw Gem5 Running in Cycle:        60300000, Inst:        23962137
5085906380500: system.switch_cpus: Raw Gem5 Running in Cycle:        60400000, Inst:        24012151
5085956380500: system.switch_cpus: Raw Gem5 Running in Cycle:        60500000, Inst:        24062077
5086006380500: system.switch_cpus: Raw Gem5 Running in Cycle:        60600000, Inst:        24111750
5086056380500: system.switch_cpus: Raw Gem5 Running in Cycle:        60700000, Inst:        24162673
5086106380500: system.switch_cpus: Raw Gem5 Running in Cycle:        60800000, Inst:        24211670
5086156380500: system.switch_cpus: Raw Gem5 Running in Cycle:        60900000, Inst:        24261240
5086206380500: system.switch_cpus: Raw Gem5 Running in Cycle:        61000000, Inst:        24310913
5086256380500: system.switch_cpus: Raw Gem5 Running in Cycle:        61100000, Inst:        24361554
5086306380500: system.switch_cpus: Raw Gem5 Running in Cycle:        61200000, Inst:        24411190
5086356380500: system.switch_cpus: Raw Gem5 Running in Cycle:        61300000, Inst:        24461195
5086406380500: system.switch_cpus: Raw Gem5 Running in Cycle:        61400000, Inst:        24482759
5086456380500: system.switch_cpus: Raw Gem5 Running in Cycle:        61500000, Inst:        24515190
5086506380500: system.switch_cpus: Raw Gem5 Running in Cycle:        61600000, Inst:        24565300
5086556380500: system.switch_cpus: Raw Gem5 Running in Cycle:        61700000, Inst:        24615119
5086606380500: system.switch_cpus: Raw Gem5 Running in Cycle:        61800000, Inst:        24664453
5086656380500: system.switch_cpus: Raw Gem5 Running in Cycle:        61900000, Inst:        24715333
5086706380500: system.switch_cpus: Raw Gem5 Running in Cycle:        62000000, Inst:        24765714
5086756380500: system.switch_cpus: Raw Gem5 Running in Cycle:        62100000, Inst:        24816612
5086806380500: system.switch_cpus: Raw Gem5 Running in Cycle:        62200000, Inst:        24866310
5086856380500: system.switch_cpus: Raw Gem5 Running in Cycle:        62300000, Inst:        24916525
5086906380500: system.switch_cpus: Raw Gem5 Running in Cycle:        62400000, Inst:        24967247
5086956380500: system.switch_cpus: Raw Gem5 Running in Cycle:        62500000, Inst:        25017488
5087006380500: system.switch_cpus: Raw Gem5 Running in Cycle:        62600000, Inst:        25066138
5087056380500: system.switch_cpus: Raw Gem5 Running in Cycle:        62700000, Inst:        25116725
5087106380500: system.switch_cpus: Raw Gem5 Running in Cycle:        62800000, Inst:        25165721
5087156380500: system.switch_cpus: Raw Gem5 Running in Cycle:        62900000, Inst:        25215958
5087206380500: system.switch_cpus: Raw Gem5 Running in Cycle:        63000000, Inst:        25265625
5087256380500: system.switch_cpus: Raw Gem5 Running in Cycle:        63100000, Inst:        25315872
5087306380500: system.switch_cpus: Raw Gem5 Running in Cycle:        63200000, Inst:        25365886
5087356380500: system.switch_cpus: Raw Gem5 Running in Cycle:        63300000, Inst:        25416776
5087406380500: system.switch_cpus: Raw Gem5 Running in Cycle:        63400000, Inst:        25466476
5087456380500: system.switch_cpus: Raw Gem5 Running in Cycle:        63500000, Inst:        25517058
5087506380500: system.switch_cpus: Raw Gem5 Running in Cycle:        63600000, Inst:        25566748
5087556380500: system.switch_cpus: Raw Gem5 Running in Cycle:        63700000, Inst:        25616978
5087606380500: system.switch_cpus: Raw Gem5 Running in Cycle:        63800000, Inst:        25666321
5087656380500: system.switch_cpus: Raw Gem5 Running in Cycle:        63900000, Inst:        25716210
5087706380500: system.switch_cpus: Raw Gem5 Running in Cycle:        64000000, Inst:        25765877
5087756380500: system.switch_cpus: Raw Gem5 Running in Cycle:        64100000, Inst:        25816131
5087806380500: system.switch_cpus: Raw Gem5 Running in Cycle:        64200000, Inst:        25866132
5087856380500: system.switch_cpus: Raw Gem5 Running in Cycle:        64300000, Inst:        25916049
5087906380500: system.switch_cpus: Raw Gem5 Running in Cycle:        64400000, Inst:        25966063
5087956380500: system.switch_cpus: Raw Gem5 Running in Cycle:        64500000, Inst:        26016645
5088006380500: system.switch_cpus: Raw Gem5 Running in Cycle:        64600000, Inst:        26066957
5088056380500: system.switch_cpus: Raw Gem5 Running in Cycle:        64700000, Inst:        26117239
5088106380500: system.switch_cpus: Raw Gem5 Running in Cycle:        64800000, Inst:        26166914
5088156380500: system.switch_cpus: Raw Gem5 Running in Cycle:        64900000, Inst:        26217479
5088206380500: system.switch_cpus: Raw Gem5 Running in Cycle:        65000000, Inst:        26266764
5088256380500: system.switch_cpus: Raw Gem5 Running in Cycle:        65100000, Inst:        26317740
5088306380500: system.switch_cpus: Raw Gem5 Running in Cycle:        65200000, Inst:        26367424
5088356380500: system.switch_cpus: Raw Gem5 Running in Cycle:        65300000, Inst:        26417654
5088406380500: system.switch_cpus: Raw Gem5 Running in Cycle:        65400000, Inst:        26467331
5088456380500: system.switch_cpus: Raw Gem5 Running in Cycle:        65500000, Inst:        26515935
5088506380500: system.switch_cpus: Raw Gem5 Running in Cycle:        65600000, Inst:        26566100
5088556380500: system.switch_cpus: Raw Gem5 Running in Cycle:        65700000, Inst:        26616470
5088606380500: system.switch_cpus: Raw Gem5 Running in Cycle:        65800000, Inst:        26665345
5088656380500: system.switch_cpus: Raw Gem5 Running in Cycle:        65900000, Inst:        26715702
5088706380500: system.switch_cpus: Raw Gem5 Running in Cycle:        66000000, Inst:        26765555
5088756380500: system.switch_cpus: Raw Gem5 Running in Cycle:        66100000, Inst:        26815337
5088806380500: system.switch_cpus: Raw Gem5 Running in Cycle:        66200000, Inst:        26865840
5088856380500: system.switch_cpus: Raw Gem5 Running in Cycle:        66300000, Inst:        26915854
5088906380500: system.switch_cpus: Raw Gem5 Running in Cycle:        66400000, Inst:        26966436
5088956380500: system.switch_cpus: Raw Gem5 Running in Cycle:        66500000, Inst:        27015920
5089006380500: system.switch_cpus: Raw Gem5 Running in Cycle:        66600000, Inst:        27066350
5089056380500: system.switch_cpus: Raw Gem5 Running in Cycle:        66700000, Inst:        27116364
5089106380500: system.switch_cpus: Raw Gem5 Running in Cycle:        66800000, Inst:        27166963
5089156380500: system.switch_cpus: Raw Gem5 Running in Cycle:        66900000, Inst:        27216652
5089206380500: system.switch_cpus: Raw Gem5 Running in Cycle:        67000000, Inst:        27266519
5089256380500: system.switch_cpus: Raw Gem5 Running in Cycle:        67100000, Inst:        27316209
5089306380500: system.switch_cpus: Raw Gem5 Running in Cycle:        67200000, Inst:        27366779
5089356380500: system.switch_cpus: Raw Gem5 Running in Cycle:        67300000, Inst:        27417470
5089406380500: system.switch_cpus: Raw Gem5 Running in Cycle:        67400000, Inst:        27467711
5089456380500: system.switch_cpus: Raw Gem5 Running in Cycle:        67500000, Inst:        27517060
5089506380500: system.switch_cpus: Raw Gem5 Running in Cycle:        67600000, Inst:        27567599
5089556380500: system.switch_cpus: Raw Gem5 Running in Cycle:        67700000, Inst:        27617656
5089606380500: system.switch_cpus: Raw Gem5 Running in Cycle:        67800000, Inst:        27667204
5089656380500: system.switch_cpus: Raw Gem5 Running in Cycle:        67900000, Inst:        27717553
5089706380500: system.switch_cpus: Raw Gem5 Running in Cycle:        68000000, Inst:        27767811
5089756380500: system.switch_cpus: Raw Gem5 Running in Cycle:        68100000, Inst:        27781971
5089806380500: system.switch_cpus: Raw Gem5 Running in Cycle:        68200000, Inst:        27820683
5089856380500: system.switch_cpus: Raw Gem5 Running in Cycle:        68300000, Inst:        27870199
5089906380500: system.switch_cpus: Raw Gem5 Running in Cycle:        68400000, Inst:        27919580
5089956380500: system.switch_cpus: Raw Gem5 Running in Cycle:        68500000, Inst:        27970162
5090006380500: system.switch_cpus: Raw Gem5 Running in Cycle:        68600000, Inst:        28019493
5090056380500: system.switch_cpus: Raw Gem5 Running in Cycle:        68700000, Inst:        28069703
5090106380500: system.switch_cpus: Raw Gem5 Running in Cycle:        68800000, Inst:        28118947
5090156380500: system.switch_cpus: Raw Gem5 Running in Cycle:        68900000, Inst:        28168296
5090206380500: system.switch_cpus: Raw Gem5 Running in Cycle:        69000000, Inst:        28217855
5090256380500: system.switch_cpus: Raw Gem5 Running in Cycle:        69100000, Inst:        28267520
5090306380500: system.switch_cpus: Raw Gem5 Running in Cycle:        69200000, Inst:        28318459
5090356380500: system.switch_cpus: Raw Gem5 Running in Cycle:        69300000, Inst:        28368453
5090406380500: system.switch_cpus: Raw Gem5 Running in Cycle:        69400000, Inst:        28418363
5090456380500: system.switch_cpus: Raw Gem5 Running in Cycle:        69500000, Inst:        28468031
5090506380500: system.switch_cpus: Raw Gem5 Running in Cycle:        69600000, Inst:        28518944
5090556380500: system.switch_cpus: Raw Gem5 Running in Cycle:        69700000, Inst:        28569640
5090606380500: system.switch_cpus: Raw Gem5 Running in Cycle:        69800000, Inst:        28620565
5090656380500: system.switch_cpus: Raw Gem5 Running in Cycle:        69900000, Inst:        28669905
5090706380500: system.switch_cpus: Raw Gem5 Running in Cycle:        70000000, Inst:        28719471
5090756380500: system.switch_cpus: Raw Gem5 Running in Cycle:        70100000, Inst:        28769127
5090806380500: system.switch_cpus: Raw Gem5 Running in Cycle:        70200000, Inst:        28819374
5090856380500: system.switch_cpus: Raw Gem5 Running in Cycle:        70300000, Inst:        28869051
5090906380500: system.switch_cpus: Raw Gem5 Running in Cycle:        70400000, Inst:        28919288
5090956380500: system.switch_cpus: Raw Gem5 Running in Cycle:        70500000, Inst:        28969269
5091006380500: system.switch_cpus: Raw Gem5 Running in Cycle:        70600000, Inst:        29020193
5091056380500: system.switch_cpus: Raw Gem5 Running in Cycle:        70700000, Inst:        29069892
5091106380500: system.switch_cpus: Raw Gem5 Running in Cycle:        70800000, Inst:        29120150
5091156380500: system.switch_cpus: Raw Gem5 Running in Cycle:        70900000, Inst:        29170488
5091206380500: system.switch_cpus: Raw Gem5 Running in Cycle:        71000000, Inst:        29220405
5091256380500: system.switch_cpus: Raw Gem5 Running in Cycle:        71100000, Inst:        29269720
5091306380500: system.switch_cpus: Raw Gem5 Running in Cycle:        71200000, Inst:        29319971
5091356380500: system.switch_cpus: Raw Gem5 Running in Cycle:        71300000, Inst:        29368958
5091406380500: system.switch_cpus: Raw Gem5 Running in Cycle:        71400000, Inst:        29418867
5091456380500: system.switch_cpus: Raw Gem5 Running in Cycle:        71500000, Inst:        29468872
5091506380500: system.switch_cpus: Raw Gem5 Running in Cycle:        71600000, Inst:        29519570
5091556380500: system.switch_cpus: Raw Gem5 Running in Cycle:        71700000, Inst:        29569095
5091606380500: system.switch_cpus: Raw Gem5 Running in Cycle:        71800000, Inst:        29620358
5091656380500: system.switch_cpus: Raw Gem5 Running in Cycle:        71900000, Inst:        29670075
5091706380500: system.switch_cpus: Raw Gem5 Running in Cycle:        72000000, Inst:        29721406
5091756380500: system.switch_cpus: Raw Gem5 Running in Cycle:        72100000, Inst:        29770969
5091806380500: system.switch_cpus: Raw Gem5 Running in Cycle:        72200000, Inst:        29821577
5091856380500: system.switch_cpus: Raw Gem5 Running in Cycle:        72300000, Inst:        29871947
5091906380500: system.switch_cpus: Raw Gem5 Running in Cycle:        72400000, Inst:        29922147
5091956380500: system.switch_cpus: Raw Gem5 Running in Cycle:        72500000, Inst:        29972187
5092006380500: system.switch_cpus: Raw Gem5 Running in Cycle:        72600000, Inst:        30022722
5092056380500: system.switch_cpus: Raw Gem5 Running in Cycle:        72700000, Inst:        30072518
5092106380500: system.switch_cpus: Raw Gem5 Running in Cycle:        72800000, Inst:        30123040
5092156380500: system.switch_cpus: Raw Gem5 Running in Cycle:        72900000, Inst:        30172356
5092206380500: system.switch_cpus: Raw Gem5 Running in Cycle:        73000000, Inst:        30222938
5092256380500: system.switch_cpus: Raw Gem5 Running in Cycle:        73100000, Inst:        30272585
5092306380500: system.switch_cpus: Raw Gem5 Running in Cycle:        73200000, Inst:        30323100
5092356380500: system.switch_cpus: Raw Gem5 Running in Cycle:        73300000, Inst:        30372866
5092406380500: system.switch_cpus: Raw Gem5 Running in Cycle:        73400000, Inst:        30423763
5092456380500: system.switch_cpus: Raw Gem5 Running in Cycle:        73500000, Inst:        30473803
5092506380500: system.switch_cpus: Raw Gem5 Running in Cycle:        73600000, Inst:        30524395
5092556380500: system.switch_cpus: Raw Gem5 Running in Cycle:        73700000, Inst:        30574818
5092606380500: system.switch_cpus: Raw Gem5 Running in Cycle:        73800000, Inst:        30625530
5092656380500: system.switch_cpus: Raw Gem5 Running in Cycle:        73900000, Inst:        30675336
5092706380500: system.switch_cpus: Raw Gem5 Running in Cycle:        74000000, Inst:        30725594
5092756380500: system.switch_cpus: Raw Gem5 Running in Cycle:        74100000, Inst:        30775591
5092806380500: system.switch_cpus: Raw Gem5 Running in Cycle:        74200000, Inst:        30824847
5092856380500: system.switch_cpus: Raw Gem5 Running in Cycle:        74300000, Inst:        30874439
5092906380500: system.switch_cpus: Raw Gem5 Running in Cycle:        74400000, Inst:        30924744
5092956380500: system.switch_cpus: Raw Gem5 Running in Cycle:        74500000, Inst:        30974737
5093006380500: system.switch_cpus: Raw Gem5 Running in Cycle:        74600000, Inst:        31025567
5093056380500: system.switch_cpus: Raw Gem5 Running in Cycle:        74700000, Inst:        31071755
5093106380500: system.switch_cpus: Raw Gem5 Running in Cycle:        74800000, Inst:        31081477
5093156380500: system.switch_cpus: Raw Gem5 Running in Cycle:        74900000, Inst:        31127974
5093206380500: system.switch_cpus: Raw Gem5 Running in Cycle:        75000000, Inst:        31178349
5093256380500: system.switch_cpus: Raw Gem5 Running in Cycle:        75100000, Inst:        31228039
5093306380500: system.switch_cpus: Raw Gem5 Running in Cycle:        75200000, Inst:        31277928
5093356380500: system.switch_cpus: Raw Gem5 Running in Cycle:        75300000, Inst:        31328214
5093406380500: system.switch_cpus: Raw Gem5 Running in Cycle:        75400000, Inst:        31378876
5093456380500: system.switch_cpus: Raw Gem5 Running in Cycle:        75500000, Inst:        31428212
5093506380500: system.switch_cpus: Raw Gem5 Running in Cycle:        75600000, Inst:        31478449
5093556380500: system.switch_cpus: Raw Gem5 Running in Cycle:        75700000, Inst:        31527764
5093606380500: system.switch_cpus: Raw Gem5 Running in Cycle:        75800000, Inst:        31579028
5093656380500: system.switch_cpus: Raw Gem5 Running in Cycle:        75900000, Inst:        31627756
[...]
5158756380500: system.switch_cpus: Raw Gem5 Running in Cycle:       206100000, Inst:        91411312
5158806380500: system.switch_cpus: Raw Gem5 Running in Cycle:       206200000, Inst:        91461229
5158856380500: system.switch_cpus: Raw Gem5 Running in Cycle:       206300000, Inst:        91510859
5158906380500: system.switch_cpus: Raw Gem5 Running in Cycle:       206400000, Inst:        91561814
5158956380500: system.switch_cpus: Raw Gem5 Running in Cycle:       206500000, Inst:        91612163
5159006380500: system.switch_cpus: Raw Gem5 Running in Cycle:       206600000, Inst:        91662063
5159056380500: system.switch_cpus: Raw Gem5 Running in Cycle:       206700000, Inst:        91701632
5159106380500: system.switch_cpus: Raw Gem5 Running in Cycle:       206800000, Inst:        91713221
5159156380500: system.switch_cpus: Raw Gem5 Running in Cycle:       206900000, Inst:        91763875
5159206380500: system.switch_cpus: Raw Gem5 Running in Cycle:       207000000, Inst:        91814184
5159256380500: system.switch_cpus: Raw Gem5 Running in Cycle:       207100000, Inst:        91864481
5159306380500: system.switch_cpus: Raw Gem5 Running in Cycle:       207200000, Inst:        91913028
5159356380500: system.switch_cpus: Raw Gem5 Running in Cycle:       207300000, Inst:        91963289
5159406380500: system.switch_cpus: Raw Gem5 Running in Cycle:       207400000, Inst:        92013006
5159456380500: system.switch_cpus: Raw Gem5 Running in Cycle:       207500000, Inst:        92057437
5159506380500: system.switch_cpus: Raw Gem5 Running in Cycle:       207600000, Inst:        92101161
5159556380500: system.switch_cpus: Raw Gem5 Running in Cycle:       207700000, Inst:        92139574
5159606380500: system.switch_cpus: Raw Gem5 Running in Cycle:       207800000, Inst:        92182040
5159656380500: system.switch_cpus: Raw Gem5 Running in Cycle:       207900000, Inst:        92216503
5159706380500: system.switch_cpus: Raw Gem5 Running in Cycle:       208000000, Inst:        92256074
5159756380500: system.switch_cpus: Raw Gem5 Running in Cycle:       208100000, Inst:        92290803
5159806380500: system.switch_cpus: Raw Gem5 Running in Cycle:       208200000, Inst:        92325425
5159856380500: system.switch_cpus: Raw Gem5 Running in Cycle:       208300000, Inst:        92363924
5159906380500: system.switch_cpus: Raw Gem5 Running in Cycle:       208400000, Inst:        92394104
5159956380500: system.switch_cpus: Raw Gem5 Running in Cycle:       208500000, Inst:        92433902
5160006380500: system.switch_cpus: Raw Gem5 Running in Cycle:       208600000, Inst:        92463730
5160056380500: system.switch_cpus: Raw Gem5 Running in Cycle:       208700000, Inst:        92498752
5160106380500: system.switch_cpus: Raw Gem5 Running in Cycle:       208800000, Inst:        92532778
5160156380500: system.switch_cpus: Raw Gem5 Running in Cycle:       208900000, Inst:        92563809
5160206380500: system.switch_cpus: Raw Gem5 Running in Cycle:       209000000, Inst:        92601203
5160256380500: system.switch_cpus: Raw Gem5 Running in Cycle:       209100000, Inst:        92631124
5160306380500: system.switch_cpus: Raw Gem5 Running in Cycle:       209200000, Inst:        92670105
5160356380500: system.switch_cpus: Raw Gem5 Running in Cycle:       209300000, Inst:        92702471
5160406380500: system.switch_cpus: Raw Gem5 Running in Cycle:       209400000, Inst:        92738048
5160456380500: system.switch_cpus: Raw Gem5 Running in Cycle:       209500000, Inst:        92775181
5160506380500: system.switch_cpus: Raw Gem5 Running in Cycle:       209600000, Inst:        92808616
5160556380500: system.switch_cpus: Raw Gem5 Running in Cycle:       209700000, Inst:        92849977
5160606380500: system.switch_cpus: Raw Gem5 Running in Cycle:       209800000, Inst:        92885626
5160656380500: system.switch_cpus: Raw Gem5 Running in Cycle:       209900000, Inst:        92928665
5160706380500: system.switch_cpus: Raw Gem5 Running in Cycle:       210000000, Inst:        92968456
5160756380500: system.switch_cpus: Raw Gem5 Running in Cycle:       210100000, Inst:        93015233
5160806380500: system.switch_cpus: Raw Gem5 Running in Cycle:       210200000, Inst:        93063924
5160856380500: system.switch_cpus: Raw Gem5 Running in Cycle:       210300000, Inst:        93113597
5160906380500: system.switch_cpus: Raw Gem5 Running in Cycle:       210400000, Inst:        93164189
5160956380500: system.switch_cpus: Raw Gem5 Running in Cycle:       210500000, Inst:        93213788
5161006380500: system.switch_cpus: Raw Gem5 Running in Cycle:       210600000, Inst:        93264440
5161056380500: system.switch_cpus: Raw Gem5 Running in Cycle:       210700000, Inst:        93313781
5161106380500: system.switch_cpus: Raw Gem5 Running in Cycle:       210800000, Inst:        93364007
5161156380500: system.switch_cpus: Raw Gem5 Running in Cycle:       210900000, Inst:        93413995
5161206380500: system.switch_cpus: Raw Gem5 Running in Cycle:       211000000, Inst:        93464944
5161256380500: system.switch_cpus: Raw Gem5 Running in Cycle:       211100000, Inst:        93514289
5161306380500: system.switch_cpus: Raw Gem5 Running in Cycle:       211200000, Inst:        93564517
5161356380500: system.switch_cpus: Raw Gem5 Running in Cycle:       211300000, Inst:        93615084
5161406380500: system.switch_cpus: Raw Gem5 Running in Cycle:       211400000, Inst:        93665022
5161456380500: system.switch_cpus: Raw Gem5 Running in Cycle:       211500000, Inst:        93715101
5161506380500: system.switch_cpus: Raw Gem5 Running in Cycle:       211600000, Inst:        93765662
5161556380500: system.switch_cpus: Raw Gem5 Running in Cycle:       211700000, Inst:        93815397
5161606380500: system.switch_cpus: Raw Gem5 Running in Cycle:       211800000, Inst:        93865934
5161656380500: system.switch_cpus: Raw Gem5 Running in Cycle:       211900000, Inst:        93914631
5161706380500: system.switch_cpus: Raw Gem5 Running in Cycle:       212000000, Inst:        93965494
5161756380500: system.switch_cpus: Raw Gem5 Running in Cycle:       212100000, Inst:        94014553
5161806380500: system.switch_cpus: Raw Gem5 Running in Cycle:       212200000, Inst:        94065116
5161856380500: system.switch_cpus: Raw Gem5 Running in Cycle:       212300000, Inst:        94114831
5161906380500: system.switch_cpus: Raw Gem5 Running in Cycle:       212400000, Inst:        94165041
5161956380500: system.switch_cpus: Raw Gem5 Running in Cycle:       212500000, Inst:        94214361
5162006380500: system.switch_cpus: Raw Gem5 Running in Cycle:       212600000, Inst:        94264597
5162056380500: system.switch_cpus: Raw Gem5 Running in Cycle:       212700000, Inst:        94313840
5162106380500: system.switch_cpus: Raw Gem5 Running in Cycle:       212800000, Inst:        94364175
5162156380500: system.switch_cpus: Raw Gem5 Running in Cycle:       212900000, Inst:        94414428
5162206380500: system.switch_cpus: Raw Gem5 Running in Cycle:       213000000, Inst:        94463760
5162256380500: system.switch_cpus: Raw Gem5 Running in Cycle:       213100000, Inst:        94514325
5162306380500: system.switch_cpus: Raw Gem5 Running in Cycle:       213200000, Inst:        94564313
5162356380500: system.switch_cpus: Raw Gem5 Running in Cycle:       213300000, Inst:        94589207
5162406380500: system.switch_cpus: Raw Gem5 Running in Cycle:       213400000, Inst:        94617120
5162456380500: system.switch_cpus: Raw Gem5 Running in Cycle:       213500000, Inst:        94667128
5162506380500: system.switch_cpus: Raw Gem5 Running in Cycle:       213600000, Inst:        94717716
5162556380500: system.switch_cpus: Raw Gem5 Running in Cycle:       213700000, Inst:        94766360
5162606380500: system.switch_cpus: Raw Gem5 Running in Cycle:       213800000, Inst:        94816575
5162656380500: system.switch_cpus: Raw Gem5 Running in Cycle:       213900000, Inst:        94866973
5162706380500: system.switch_cpus: Raw Gem5 Running in Cycle:       214000000, Inst:        94914315
5162756380500: system.switch_cpus: Raw Gem5 Running in Cycle:       214100000, Inst:        94960753
5162806380500: system.switch_cpus: Raw Gem5 Running in Cycle:       214200000, Inst:        95000527
5162856380500: system.switch_cpus: Raw Gem5 Running in Cycle:       214300000, Inst:        95042782
5162906380500: system.switch_cpus: Raw Gem5 Running in Cycle:       214400000, Inst:        95079798
5162956380500: system.switch_cpus: Raw Gem5 Running in Cycle:       214500000, Inst:        95116733
5163006380500: system.switch_cpus: Raw Gem5 Running in Cycle:       214600000, Inst:        95154937
5163056380500: system.switch_cpus: Raw Gem5 Running in Cycle:       214700000, Inst:        95187328
5163106380500: system.switch_cpus: Raw Gem5 Running in Cycle:       214800000, Inst:        95227403
5163156380500: system.switch_cpus: Raw Gem5 Running in Cycle:       214900000, Inst:        95258649
5163206380500: system.switch_cpus: Raw Gem5 Running in Cycle:       215000000, Inst:        95296512
5163256380500: system.switch_cpus: Raw Gem5 Running in Cycle:       215100000, Inst:        95328538
5163306380500: system.switch_cpus: Raw Gem5 Running in Cycle:       215200000, Inst:        95361640
5163356380500: system.switch_cpus: Raw Gem5 Running in Cycle:       215300000, Inst:        95397626
5163406380500: system.switch_cpus: Raw Gem5 Running in Cycle:       215400000, Inst:        95426530
5163456380500: system.switch_cpus: Raw Gem5 Running in Cycle:       215500000, Inst:        95466484
5163506380500: system.switch_cpus: Raw Gem5 Running in Cycle:       215600000, Inst:        95496042
5163556380500: system.switch_cpus: Raw Gem5 Running in Cycle:       215700000, Inst:        95532498
5163606380500: system.switch_cpus: Raw Gem5 Running in Cycle:       215800000, Inst:        95566491
5163656380500: system.switch_cpus: Raw Gem5 Running in Cycle:       215900000, Inst:        95599928
5163706380500: system.switch_cpus: Raw Gem5 Running in Cycle:       216000000, Inst:        95639149
5163756380500: system.switch_cpus: Raw Gem5 Running in Cycle:       216100000, Inst:        95671330
5163806380500: system.switch_cpus: Raw Gem5 Running in Cycle:       216200000, Inst:        95712710
5163856380500: system.switch_cpus: Raw Gem5 Running in Cycle:       216300000, Inst:        95747823
5163906380500: system.switch_cpus: Raw Gem5 Running in Cycle:       216400000, Inst:        95789662
5163956380500: system.switch_cpus: Raw Gem5 Running in Cycle:       216500000, Inst:        95828370
5164006380500: system.switch_cpus: Raw Gem5 Running in Cycle:       216600000, Inst:        95872256
5164056380500: system.switch_cpus: Raw Gem5 Running in Cycle:       216700000, Inst:        95917550
5164106380500: system.switch_cpus: Raw Gem5 Running in Cycle:       216800000, Inst:        95967981
5164156380500: system.switch_cpus: Raw Gem5 Running in Cycle:       216900000, Inst:        96018845
5164206380500: system.switch_cpus: Raw Gem5 Running in Cycle:       217000000, Inst:        96069183
5164256380500: system.switch_cpus: Raw Gem5 Running in Cycle:       217100000, Inst:        96119057
5164306380500: system.switch_cpus: Raw Gem5 Running in Cycle:       217200000, Inst:        96168790
5164356380500: system.switch_cpus: Raw Gem5 Running in Cycle:       217300000, Inst:        96218890
5164406380500: system.switch_cpus: Raw Gem5 Running in Cycle:       217400000, Inst:        96268676
5164456380500: system.switch_cpus: Raw Gem5 Running in Cycle:       217500000, Inst:        96317547
5164506380500: system.switch_cpus: Raw Gem5 Running in Cycle:       217600000, Inst:        96366544
5164556380500: system.switch_cpus: Raw Gem5 Running in Cycle:       217700000, Inst:        96416444
5164606380500: system.switch_cpus: Raw Gem5 Running in Cycle:       217800000, Inst:        96465727
5164656380500: system.switch_cpus: Raw Gem5 Running in Cycle:       217900000, Inst:        96516352
5164706380500: system.switch_cpus: Raw Gem5 Running in Cycle:       218000000, Inst:        96566366
5164756380500: system.switch_cpus: Raw Gem5 Running in Cycle:       218100000, Inst:        96616948
5164806380500: system.switch_cpus: Raw Gem5 Running in Cycle:       218200000, Inst:        96666303
5164856380500: system.switch_cpus: Raw Gem5 Running in Cycle:       218300000, Inst:        96716862
5164906380500: system.switch_cpus: Raw Gem5 Running in Cycle:       218400000, Inst:        96766194
5164956380500: system.switch_cpus: Raw Gem5 Running in Cycle:       218500000, Inst:        96816435
5165006380500: system.switch_cpus: Raw Gem5 Running in Cycle:       218600000, Inst:        96866796
5165056380500: system.switch_cpus: Raw Gem5 Running in Cycle:       218700000, Inst:        96916690
5165106380500: system.switch_cpus: Raw Gem5 Running in Cycle:       218800000, Inst:        96966611
5165156380500: system.switch_cpus: Raw Gem5 Running in Cycle:       218900000, Inst:        97016604
5165206380500: system.switch_cpus: Raw Gem5 Running in Cycle:       219000000, Inst:        97065953
5165256380500: system.switch_cpus: Raw Gem5 Running in Cycle:       219100000, Inst:        97115169
5165306380500: system.switch_cpus: Raw Gem5 Running in Cycle:       219200000, Inst:        97165125
5165356380500: system.switch_cpus: Raw Gem5 Running in Cycle:       219300000, Inst:        97215601
5165406380500: system.switch_cpus: Raw Gem5 Running in Cycle:       219400000, Inst:        97266082
5165456380500: system.switch_cpus: Raw Gem5 Running in Cycle:       219500000, Inst:        97316363
5165506380500: system.switch_cpus: Raw Gem5 Running in Cycle:       219600000, Inst:        97366779
5165556380500: system.switch_cpus: Raw Gem5 Running in Cycle:       219700000, Inst:        97417020
5165606380500: system.switch_cpus: Raw Gem5 Running in Cycle:       219800000, Inst:        97467097
5165656380500: system.switch_cpus: Raw Gem5 Running in Cycle:       219900000, Inst:        97476788
5165706380500: system.switch_cpus: Raw Gem5 Running in Cycle:       220000000, Inst:        97520600
5165756380500: system.switch_cpus: Raw Gem5 Running in Cycle:       220100000, Inst:        97570969
5165806380500: system.switch_cpus: Raw Gem5 Running in Cycle:       220200000, Inst:        97620327
5165856380500: system.switch_cpus: Raw Gem5 Running in Cycle:       220300000, Inst:        97670568
5165906380500: system.switch_cpus: Raw Gem5 Running in Cycle:       220400000, Inst:        97720241
5165956380500: system.switch_cpus: Raw Gem5 Running in Cycle:       220500000, Inst:        97770497
5166006380500: system.switch_cpus: Raw Gem5 Running in Cycle:       220600000, Inst:        97817955
5166056380500: system.switch_cpus: Raw Gem5 Running in Cycle:       220700000, Inst:        97859977
5166106380500: system.switch_cpus: Raw Gem5 Running in Cycle:       220800000, Inst:        97901606
5166156380500: system.switch_cpus: Raw Gem5 Running in Cycle:       220900000, Inst:        97942692
5166206380500: system.switch_cpus: Raw Gem5 Running in Cycle:       221000000, Inst:        97977844
5166256380500: system.switch_cpus: Raw Gem5 Running in Cycle:       221100000, Inst:        98018574
5166306380500: system.switch_cpus: Raw Gem5 Running in Cycle:       221200000, Inst:        98051467
5166356380500: system.switch_cpus: Raw Gem5 Running in Cycle:       221300000, Inst:        98091502
5166406380500: system.switch_cpus: Raw Gem5 Running in Cycle:       221400000, Inst:        98123604
5166456380500: system.switch_cpus: Raw Gem5 Running in Cycle:       221500000, Inst:        98158883
5166506380500: system.switch_cpus: Raw Gem5 Running in Cycle:       221600000, Inst:        98193065
5166556380500: system.switch_cpus: Raw Gem5 Running in Cycle:       221700000, Inst:        98224461
5166606380500: system.switch_cpus: Raw Gem5 Running in Cycle:       221800000, Inst:        98261726
5166656380500: system.switch_cpus: Raw Gem5 Running in Cycle:       221900000, Inst:        98291094
5166706380500: system.switch_cpus: Raw Gem5 Running in Cycle:       222000000, Inst:        98329410
5166756380500: system.switch_cpus: Raw Gem5 Running in Cycle:       222100000, Inst:        98359487
5166806380500: system.switch_cpus: Raw Gem5 Running in Cycle:       222200000, Inst:        98394653
5166856380500: system.switch_cpus: Raw Gem5 Running in Cycle:       222300000, Inst:        98429331
5166906380500: system.switch_cpus: Raw Gem5 Running in Cycle:       222400000, Inst:        98461432
5166956380500: system.switch_cpus: Raw Gem5 Running in Cycle:       222500000, Inst:        98500612
5167006380500: system.switch_cpus: Raw Gem5 Running in Cycle:       222600000, Inst:        98532781
5167056380500: system.switch_cpus: Raw Gem5 Running in Cycle:       222700000, Inst:        98574211
5167106380500: system.switch_cpus: Raw Gem5 Running in Cycle:       222800000, Inst:        98608224
5167156380500: system.switch_cpus: Raw Gem5 Running in Cycle:       222900000, Inst:        98648168
5167206380500: system.switch_cpus: Raw Gem5 Running in Cycle:       223000000, Inst:        98686840
5167256380500: system.switch_cpus: Raw Gem5 Running in Cycle:       223100000, Inst:        98727991
5167306380500: system.switch_cpus: Raw Gem5 Running in Cycle:       223200000, Inst:        98772709
5167356380500: system.switch_cpus: Raw Gem5 Running in Cycle:       223300000, Inst:        98820167
5167406380500: system.switch_cpus: Raw Gem5 Running in Cycle:       223400000, Inst:        98871405
5167456380500: system.switch_cpus: Raw Gem5 Running in Cycle:       223500000, Inst:        98921189
5167506380500: system.switch_cpus: Raw Gem5 Running in Cycle:       223600000, Inst:        98971362
5167556380500: system.switch_cpus: Raw Gem5 Running in Cycle:       223700000, Inst:        99020575
5167606380500: system.switch_cpus: Raw Gem5 Running in Cycle:       223800000, Inst:        99070236
5167656380500: system.switch_cpus: Raw Gem5 Running in Cycle:       223900000, Inst:        99119568
5167706380500: system.switch_cpus: Raw Gem5 Running in Cycle:       224000000, Inst:        99169809
5167756380500: system.switch_cpus: Raw Gem5 Running in Cycle:       224100000, Inst:        99220181
5167806380500: system.switch_cpus: Raw Gem5 Running in Cycle:       224200000, Inst:        99270070
5167856380500: system.switch_cpus: Raw Gem5 Running in Cycle:       224300000, Inst:        99320419
5167906380500: system.switch_cpus: Raw Gem5 Running in Cycle:       224400000, Inst:        99371077
5167956380500: system.switch_cpus: Raw Gem5 Running in Cycle:       224500000, Inst:        99421356
5168006380500: system.switch_cpus: Raw Gem5 Running in Cycle:       224600000, Inst:        99472145
5168056380500: system.switch_cpus: Raw Gem5 Running in Cycle:       224700000, Inst:        99521222
5168106380500: system.switch_cpus: Raw Gem5 Running in Cycle:       224800000, Inst:        99571185
5168156380500: system.switch_cpus: Raw Gem5 Running in Cycle:       224900000, Inst:        99621328
5168206380500: system.switch_cpus: Raw Gem5 Running in Cycle:       225000000, Inst:        99672124
5168256380500: system.switch_cpus: Raw Gem5 Running in Cycle:       225100000, Inst:        99722328
5168306380500: system.switch_cpus: Raw Gem5 Running in Cycle:       225200000, Inst:        99773059
5168356380500: system.switch_cpus: Raw Gem5 Running in Cycle:       225300000, Inst:        99823373
5168406380500: system.switch_cpus: Raw Gem5 Running in Cycle:       225400000, Inst:        99873784
5168456380500: system.switch_cpus: Raw Gem5 Running in Cycle:       225500000, Inst:        99924012
5168506380500: system.switch_cpus: Raw Gem5 Running in Cycle:       225600000, Inst:        99974577
Exiting @ tick 5168532080500 because a thread reached the max instruction count
end time:(year-mon-day hour-minute-second)19-03-30 23-58-23
