
******************************directory****************************
spec_dir: /home/cuihongwei/experiment/mcpat-gem5-master/spec2006/benchspec/CPU2006
run_dir:  /home/cuihongwei/experiment/mcpat-gem5-master/spec2006/benchspec/CPU2006/473.astar/run/run_base_ref_amd64.0001
gem5_dir: /home/cuihongwei/experiment/experiment-gem5/raw-gem5
gem5_output_dir: /home/cuihongwei/experiment/experiment-gem5/raw-gem5/output/473.astar/alpha-OLD-473.astar-input1-190330-223528
benchmark_output:/home/cuihongwei/experiment/experiment-gem5/raw-gem5/output/473.astar/alpha-OLD-473.astar-input1-190330-223528
checkpoint_dir:/home/cuihongwei/experiment/experiment-gem5/pubs-gem5/output/alpha-473.astar-checkpoint-input1

******************************benchmark****************************
target:     473.astar
executable: astar
args:       rivers.cfg
input:      
output:     /home/cuihongwei/experiment/experiment-gem5/raw-gem5/output/473.astar/alpha-OLD-473.astar-input1-190330-223528/rivers.out
errout:     /home/cuihongwei/experiment/experiment-gem5/raw-gem5/output/473.astar/alpha-OLD-473.astar-input1-190330-223528/rivers.err

******************************gem5****************************
arch:       /home/cuihongwei/experiment/experiment-gem5/raw-gem5/build/ALPHA/gem5.opt
config:     /home/cuihongwei/experiment/experiment-gem5/raw-gem5/configs/example/se.py
args:       --num-cpus=1 --mem-size=8GB --caches --l1d_size=32kB --l1d_assoc=8 --l1i_size=32kB --l1i_assoc=8 --l2cache --l2_size=2MB --l2_assoc=16 --at-instruction --checkpoint-restore=5000000000 --maxinsts=100000000 --cpu-type=DerivO3CPU
debugFlag:  --debug-flags=ShowRunning

******************************simulation****************************
start time:(year-mon-day hour-minute-second)19-03-30 22-35-28
gem5 Simulator System.  http://gem5.org
gem5 is copyrighted software; use the --copyright option for details.

gem5 compiled Mar 30 2019 20:24:53
gem5 started Mar 30 2019 22:35:28
gem5 executing on mprc-R730, pid 13759
command line: /home/cuihongwei/experiment/experiment-gem5/raw-gem5/build/ALPHA/gem5.opt --outdir=/home/cuihongwei/experiment/experiment-gem5/raw-gem5/output/473.astar/alpha-OLD-473.astar-input1-190330-223528 --debug-flags=ShowRunning /home/cuihongwei/experiment/experiment-gem5/raw-gem5/configs/example/se.py --num-cpus=1 --mem-size=8GB --caches --l1d_size=32kB --l1d_assoc=8 --l1i_size=32kB --l1i_assoc=8 --l2cache --l2_size=2MB --l2_assoc=16 --at-instruction --checkpoint-restore=5000000000 --maxinsts=100000000 --cpu-type=DerivO3CPU --checkpoint-dir=/home/cuihongwei/experiment/experiment-gem5/pubs-gem5/output/alpha-473.astar-checkpoint-input1 --cmd=/home/cuihongwei/experiment/mcpat-gem5-master/spec2006/benchspec/CPU2006/473.astar/run/build_peak_alpha.0001/astar --options=rivers.cfg --output=/home/cuihongwei/experiment/experiment-gem5/raw-gem5/output/473.astar/alpha-OLD-473.astar-input1-190330-223528/rivers.out --input= --errout=/home/cuihongwei/experiment/experiment-gem5/raw-gem5/output/473.astar/alpha-OLD-473.astar-input1-190330-223528/rivers.err

Global frequency set at 1000000000000 ticks per second
Switch at curTick count:10000
Switched CPUS @ tick 1599238445000
switching cpus
**** REAL SIMULATION ****
1599238445500: system.switch_cpus: Raw Gem5 Running in Cycle:               0, Inst:               0
1599292175500: system.switch_cpus: Raw Gem5 Running in Cycle:          100000, Inst:          208039
1599342175500: system.switch_cpus: Raw Gem5 Running in Cycle:          200000, Inst:          426762
1599392175500: system.switch_cpus: Raw Gem5 Running in Cycle:          300000, Inst:          645507
1599442175500: system.switch_cpus: Raw Gem5 Running in Cycle:          400000, Inst:          864222
1599492175500: system.switch_cpus: Raw Gem5 Running in Cycle:          500000, Inst:         1082951
1599542175500: system.switch_cpus: Raw Gem5 Running in Cycle:          600000, Inst:         1301612
1599592175500: system.switch_cpus: Raw Gem5 Running in Cycle:          700000, Inst:         1520429
1599642175500: system.switch_cpus: Raw Gem5 Running in Cycle:          800000, Inst:         1739099
1599692175500: system.switch_cpus: Raw Gem5 Running in Cycle:          900000, Inst:         1957693
1599742175500: system.switch_cpus: Raw Gem5 Running in Cycle:         1000000, Inst:         2176418
1599792175500: system.switch_cpus: Raw Gem5 Running in Cycle:         1100000, Inst:         2395153
1599842175500: system.switch_cpus: Raw Gem5 Running in Cycle:         1200000, Inst:         2613887
1599892175500: system.switch_cpus: Raw Gem5 Running in Cycle:         1300000, Inst:         2832615
1599942175500: system.switch_cpus: Raw Gem5 Running in Cycle:         1400000, Inst:         3051265
1599992175500: system.switch_cpus: Raw Gem5 Running in Cycle:         1500000, Inst:         3270092
1600042175500: system.switch_cpus: Raw Gem5 Running in Cycle:         1600000, Inst:         3488753
1600092175500: system.switch_cpus: Raw Gem5 Running in Cycle:         1700000, Inst:         3707320
1600142175500: system.switch_cpus: Raw Gem5 Running in Cycle:         1800000, Inst:         3926020
1600192175500: system.switch_cpus: Raw Gem5 Running in Cycle:         1900000, Inst:         4144818
1600242175500: system.switch_cpus: Raw Gem5 Running in Cycle:         2000000, Inst:         4363550
1600292175500: system.switch_cpus: Raw Gem5 Running in Cycle:         2100000, Inst:         4582278
1600342175500: system.switch_cpus: Raw Gem5 Running in Cycle:         2200000, Inst:         4800930
1600392175500: system.switch_cpus: Raw Gem5 Running in Cycle:         2300000, Inst:         5019738
1600442175500: system.switch_cpus: Raw Gem5 Running in Cycle:         2400000, Inst:         5238398
1600492175500: system.switch_cpus: Raw Gem5 Running in Cycle:         2500000, Inst:         5456965
1600542175500: system.switch_cpus: Raw Gem5 Running in Cycle:         2600000, Inst:         5675681
1600592175500: system.switch_cpus: Raw Gem5 Running in Cycle:         2700000, Inst:         5894483
1600642175500: system.switch_cpus: Raw Gem5 Running in Cycle:         2800000, Inst:         6113201
1600692175500: system.switch_cpus: Raw Gem5 Running in Cycle:         2900000, Inst:         6331888
1600742175500: system.switch_cpus: Raw Gem5 Running in Cycle:         3000000, Inst:         6550594
1600792175500: system.switch_cpus: Raw Gem5 Running in Cycle:         3100000, Inst:         6769356
1600842175500: system.switch_cpus: Raw Gem5 Running in Cycle:         3200000, Inst:         6988053
1600892175500: system.switch_cpus: Raw Gem5 Running in Cycle:         3300000, Inst:         7206630
1600942175500: system.switch_cpus: Raw Gem5 Running in Cycle:         3400000, Inst:         7425306
1600992175500: system.switch_cpus: Raw Gem5 Running in Cycle:         3500000, Inst:         7644146
1601042175500: system.switch_cpus: Raw Gem5 Running in Cycle:         3600000, Inst:         7862833
1601092175500: system.switch_cpus: Raw Gem5 Running in Cycle:         3700000, Inst:         8081535
1601142175500: system.switch_cpus: Raw Gem5 Running in Cycle:         3800000, Inst:         8300259
1601192175500: system.switch_cpus: Raw Gem5 Running in Cycle:         3900000, Inst:         8519002
1601242175500: system.switch_cpus: Raw Gem5 Running in Cycle:         4000000, Inst:         8737718
1601292175500: system.switch_cpus: Raw Gem5 Running in Cycle:         4100000, Inst:         8956295
1601342175500: system.switch_cpus: Raw Gem5 Running in Cycle:         4200000, Inst:         9174944
1601392175500: system.switch_cpus: Raw Gem5 Running in Cycle:         4300000, Inst:         9393783
1601442175500: system.switch_cpus: Raw Gem5 Running in Cycle:         4400000, Inst:         9612447
1601492175500: system.switch_cpus: Raw Gem5 Running in Cycle:         4500000, Inst:         9831159
1601542175500: system.switch_cpus: Raw Gem5 Running in Cycle:         4600000, Inst:        10049883
1601592175500: system.switch_cpus: Raw Gem5 Running in Cycle:         4700000, Inst:        10268650
1601642175500: system.switch_cpus: Raw Gem5 Running in Cycle:         4800000, Inst:        10487382
1601692175500: system.switch_cpus: Raw Gem5 Running in Cycle:         4900000, Inst:        10705957
1601742175500: system.switch_cpus: Raw Gem5 Running in Cycle:         5000000, Inst:        10924609
1601792175500: system.switch_cpus: Raw Gem5 Running in Cycle:         5100000, Inst:        11143415
1601842175500: system.switch_cpus: Raw Gem5 Running in Cycle:         5200000, Inst:        11362099
1601892175500: system.switch_cpus: Raw Gem5 Running in Cycle:         5300000, Inst:        11580807
1601942175500: system.switch_cpus: Raw Gem5 Running in Cycle:         5400000, Inst:        11799515
1601992175500: system.switch_cpus: Raw Gem5 Running in Cycle:         5500000, Inst:        12018315
1602042175500: system.switch_cpus: Raw Gem5 Running in Cycle:         5600000, Inst:        12237047
1602092175500: system.switch_cpus: Raw Gem5 Running in Cycle:         5700000, Inst:        12455619
1602142175500: system.switch_cpus: Raw Gem5 Running in Cycle:         5800000, Inst:        12674274
1602192175500: system.switch_cpus: Raw Gem5 Running in Cycle:         5900000, Inst:        12893049
1602242175500: system.switch_cpus: Raw Gem5 Running in Cycle:         6000000, Inst:        13111757
1602292175500: system.switch_cpus: Raw Gem5 Running in Cycle:         6100000, Inst:        13330462
1602342175500: system.switch_cpus: Raw Gem5 Running in Cycle:         6200000, Inst:        13549161
1602392175500: system.switch_cpus: Raw Gem5 Running in Cycle:         6300000, Inst:        13767980
1602442175500: system.switch_cpus: Raw Gem5 Running in Cycle:         6400000, Inst:        13986674
1602492175500: system.switch_cpus: Raw Gem5 Running in Cycle:         6500000, Inst:        14205285
1602542175500: system.switch_cpus: Raw Gem5 Running in Cycle:         6600000, Inst:        14423938
1602592175500: system.switch_cpus: Raw Gem5 Running in Cycle:         6700000, Inst:        14642706
1602642175500: system.switch_cpus: Raw Gem5 Running in Cycle:         6800000, Inst:        14861422
1602692175500: system.switch_cpus: Raw Gem5 Running in Cycle:         6900000, Inst:        15080127
1602742175500: system.switch_cpus: Raw Gem5 Running in Cycle:         7000000, Inst:        15298796
1602792175500: system.switch_cpus: Raw Gem5 Running in Cycle:         7100000, Inst:        15517635
1602842175500: system.switch_cpus: Raw Gem5 Running in Cycle:         7200000, Inst:        15736308
1602892175500: system.switch_cpus: Raw Gem5 Running in Cycle:         7300000, Inst:        15955029
1602942175500: system.switch_cpus: Raw Gem5 Running in Cycle:         7400000, Inst:        16173599
1602992175500: system.switch_cpus: Raw Gem5 Running in Cycle:         7500000, Inst:        16392348
1603042175500: system.switch_cpus: Raw Gem5 Running in Cycle:         7600000, Inst:        16611086
1603092175500: system.switch_cpus: Raw Gem5 Running in Cycle:         7700000, Inst:        16829792
1603142175500: system.switch_cpus: Raw Gem5 Running in Cycle:         7800000, Inst:        17048441
1603192175500: system.switch_cpus: Raw Gem5 Running in Cycle:         7900000, Inst:        17267256
1603242175500: system.switch_cpus: Raw Gem5 Running in Cycle:         8000000, Inst:        17485941
1603292175500: system.switch_cpus: Raw Gem5 Running in Cycle:         8100000, Inst:        17704649
1603342175500: system.switch_cpus: Raw Gem5 Running in Cycle:         8200000, Inst:        17923264
1603392175500: system.switch_cpus: Raw Gem5 Running in Cycle:         8300000, Inst:        18141967
1603442175500: system.switch_cpus: Raw Gem5 Running in Cycle:         8400000, Inst:        18360728
1603492175500: system.switch_cpus: Raw Gem5 Running in Cycle:         8500000, Inst:        18579452
1603542175500: system.switch_cpus: Raw Gem5 Running in Cycle:         8600000, Inst:        18798106
1603592175500: system.switch_cpus: Raw Gem5 Running in Cycle:         8700000, Inst:        19016888
1603642175500: system.switch_cpus: Raw Gem5 Running in Cycle:         8800000, Inst:        19235589
1603692175500: system.switch_cpus: Raw Gem5 Running in Cycle:         8900000, Inst:        19454293
1603742175500: system.switch_cpus: Raw Gem5 Running in Cycle:         9000000, Inst:        19672908
1603792175500: system.switch_cpus: Raw Gem5 Running in Cycle:         9100000, Inst:        19891582
1603842175500: system.switch_cpus: Raw Gem5 Running in Cycle:         9200000, Inst:        20110383
1603892175500: system.switch_cpus: Raw Gem5 Running in Cycle:         9300000, Inst:        20329116
1603942175500: system.switch_cpus: Raw Gem5 Running in Cycle:         9400000, Inst:        20547771
1603992175500: system.switch_cpus: Raw Gem5 Running in Cycle:         9500000, Inst:        20766545
1604042175500: system.switch_cpus: Raw Gem5 Running in Cycle:         9600000, Inst:        20985254
1604092175500: system.switch_cpus: Raw Gem5 Running in Cycle:         9700000, Inst:        21203958
1604142175500: system.switch_cpus: Raw Gem5 Running in Cycle:         9800000, Inst:        21422571
1604192175500: system.switch_cpus: Raw Gem5 Running in Cycle:         9900000, Inst:        21641244
1604242175500: system.switch_cpus: Raw Gem5 Running in Cycle:        10000000, Inst:        21860048
1604292175500: system.switch_cpus: Raw Gem5 Running in Cycle:        10100000, Inst:        22078772
1604342175500: system.switch_cpus: Raw Gem5 Running in Cycle:        10200000, Inst:        22297433
1604392175500: system.switch_cpus: Raw Gem5 Running in Cycle:        10300000, Inst:        22516186
1604442175500: system.switch_cpus: Raw Gem5 Running in Cycle:        10400000, Inst:        22734919
1604492175500: system.switch_cpus: Raw Gem5 Running in Cycle:        10500000, Inst:        22953623
1604542175500: system.switch_cpus: Raw Gem5 Running in Cycle:        10600000, Inst:        23172236
1604592175500: system.switch_cpus: Raw Gem5 Running in Cycle:        10700000, Inst:        23390897
1604642175500: system.switch_cpus: Raw Gem5 Running in Cycle:        10800000, Inst:        23609714
1604692175500: system.switch_cpus: Raw Gem5 Running in Cycle:        10900000, Inst:        23828384
1604742175500: system.switch_cpus: Raw Gem5 Running in Cycle:        11000000, Inst:        24047095
1604792175500: system.switch_cpus: Raw Gem5 Running in Cycle:        11100000, Inst:        24265836
1604842175500: system.switch_cpus: Raw Gem5 Running in Cycle:        11200000, Inst:        24484574
1604892175500: system.switch_cpus: Raw Gem5 Running in Cycle:        11300000, Inst:        24703286
1604942175500: system.switch_cpus: Raw Gem5 Running in Cycle:        11400000, Inst:        24921900
1604992175500: system.switch_cpus: Raw Gem5 Running in Cycle:        11500000, Inst:        25140550
1605043094500: system.switch_cpus: Raw Gem5 Running in Cycle:        11600000, Inst:        25182179
1605093094500: system.switch_cpus: Raw Gem5 Running in Cycle:        11700000, Inst:        25221500
1605143094500: system.switch_cpus: Raw Gem5 Running in Cycle:        11800000, Inst:        25260717
1605193094500: system.switch_cpus: Raw Gem5 Running in Cycle:        11900000, Inst:        25376484
1605243094500: system.switch_cpus: Raw Gem5 Running in Cycle:        12000000, Inst:        25595199
1605293094500: system.switch_cpus: Raw Gem5 Running in Cycle:        12100000, Inst:        25813928
1605343094500: system.switch_cpus: Raw Gem5 Running in Cycle:        12200000, Inst:        26032589
1605393094500: system.switch_cpus: Raw Gem5 Running in Cycle:        12300000, Inst:        26251406
1605443094500: system.switch_cpus: Raw Gem5 Running in Cycle:        12400000, Inst:        26469952
1605493094500: system.switch_cpus: Raw Gem5 Running in Cycle:        12500000, Inst:        26688670
1605543094500: system.switch_cpus: Raw Gem5 Running in Cycle:        12600000, Inst:        26907395
1605593094500: system.switch_cpus: Raw Gem5 Running in Cycle:        12700000, Inst:        27126130
1605643094500: system.switch_cpus: Raw Gem5 Running in Cycle:        12800000, Inst:        27344864
1605693094500: system.switch_cpus: Raw Gem5 Running in Cycle:        12900000, Inst:        27563592
1605743094500: system.switch_cpus: Raw Gem5 Running in Cycle:        13000000, Inst:        27782242
1605793094500: system.switch_cpus: Raw Gem5 Running in Cycle:        13100000, Inst:        28001069
1605843094500: system.switch_cpus: Raw Gem5 Running in Cycle:        13200000, Inst:        28219590
1605893094500: system.switch_cpus: Raw Gem5 Running in Cycle:        13300000, Inst:        28438298
1605943094500: system.switch_cpus: Raw Gem5 Running in Cycle:        13400000, Inst:        28657005
1605993094500: system.switch_cpus: Raw Gem5 Running in Cycle:        13500000, Inst:        28875795
1606043094500: system.switch_cpus: Raw Gem5 Running in Cycle:        13600000, Inst:        29094527
1606093094500: system.switch_cpus: Raw Gem5 Running in Cycle:        13700000, Inst:        29313257
1606143094500: system.switch_cpus: Raw Gem5 Running in Cycle:        13800000, Inst:        29531907
1606193094500: system.switch_cpus: Raw Gem5 Running in Cycle:        13900000, Inst:        29750723
1606243094500: system.switch_cpus: Raw Gem5 Running in Cycle:        14000000, Inst:        29969238
1606293094500: system.switch_cpus: Raw Gem5 Running in Cycle:        14100000, Inst:        30187942
1606343094500: system.switch_cpus: Raw Gem5 Running in Cycle:        14200000, Inst:        30406659
1606393094500: system.switch_cpus: Raw Gem5 Running in Cycle:        14300000, Inst:        30625460
1606443094500: system.switch_cpus: Raw Gem5 Running in Cycle:        14400000, Inst:        30844182
1606493094500: system.switch_cpus: Raw Gem5 Running in Cycle:        14500000, Inst:        31062873
1606543094500: system.switch_cpus: Raw Gem5 Running in Cycle:        14600000, Inst:        31281573
1606593094500: system.switch_cpus: Raw Gem5 Running in Cycle:        14700000, Inst:        31500341
1606643094500: system.switch_cpus: Raw Gem5 Running in Cycle:        14800000, Inst:        31718903
1606693094500: system.switch_cpus: Raw Gem5 Running in Cycle:        14900000, Inst:        31937607
1606743094500: system.switch_cpus: Raw Gem5 Running in Cycle:        15000000, Inst:        32156284
1606793094500: system.switch_cpus: Raw Gem5 Running in Cycle:        15100000, Inst:        32375124
1606843094500: system.switch_cpus: Raw Gem5 Running in Cycle:        15200000, Inst:        32593811
1606893094500: system.switch_cpus: Raw Gem5 Running in Cycle:        15300000, Inst:        32812513
1606943094500: system.switch_cpus: Raw Gem5 Running in Cycle:        15400000, Inst:        33031236
1606993094500: system.switch_cpus: Raw Gem5 Running in Cycle:        15500000, Inst:        33249979
1607043094500: system.switch_cpus: Raw Gem5 Running in Cycle:        15600000, Inst:        33468568
1607093094500: system.switch_cpus: Raw Gem5 Running in Cycle:        15700000, Inst:        33687272
1607143094500: system.switch_cpus: Raw Gem5 Running in Cycle:        15800000, Inst:        33905928
1607193094500: system.switch_cpus: Raw Gem5 Running in Cycle:        15900000, Inst:        34124767
1607243094500: system.switch_cpus: Raw Gem5 Running in Cycle:        16000000, Inst:        34343425
1607293094500: system.switch_cpus: Raw Gem5 Running in Cycle:        16100000, Inst:        34562143
1607343094500: system.switch_cpus: Raw Gem5 Running in Cycle:        16200000, Inst:        34780868
1607393094500: system.switch_cpus: Raw Gem5 Running in Cycle:        16300000, Inst:        34999627
1607443094500: system.switch_cpus: Raw Gem5 Running in Cycle:        16400000, Inst:        35218222
1607493094500: system.switch_cpus: Raw Gem5 Running in Cycle:        16500000, Inst:        35436934
1607543094500: system.switch_cpus: Raw Gem5 Running in Cycle:        16600000, Inst:        35655586
1607593094500: system.switch_cpus: Raw Gem5 Running in Cycle:        16700000, Inst:        35874400
1607643094500: system.switch_cpus: Raw Gem5 Running in Cycle:        16800000, Inst:        36093080
1607693094500: system.switch_cpus: Raw Gem5 Running in Cycle:        16900000, Inst:        36311789
1607743094500: system.switch_cpus: Raw Gem5 Running in Cycle:        17000000, Inst:        36530492
1607793094500: system.switch_cpus: Raw Gem5 Running in Cycle:        17100000, Inst:        36749292
1607843094500: system.switch_cpus: Raw Gem5 Running in Cycle:        17200000, Inst:        36967867
1607893094500: system.switch_cpus: Raw Gem5 Running in Cycle:        17300000, Inst:        37186596
1607943094500: system.switch_cpus: Raw Gem5 Running in Cycle:        17400000, Inst:        37405251
1607993094500: system.switch_cpus: Raw Gem5 Running in Cycle:        17500000, Inst:        37624027
1608043094500: system.switch_cpus: Raw Gem5 Running in Cycle:        17600000, Inst:        37842735
1608093094500: system.switch_cpus: Raw Gem5 Running in Cycle:        17700000, Inst:        38061439
1608143094500: system.switch_cpus: Raw Gem5 Running in Cycle:        17800000, Inst:        38280146
1608193094500: system.switch_cpus: Raw Gem5 Running in Cycle:        17900000, Inst:        38498957
1608243094500: system.switch_cpus: Raw Gem5 Running in Cycle:        18000000, Inst:        38717529
1608293094500: system.switch_cpus: Raw Gem5 Running in Cycle:        18100000, Inst:        38936262
1608343094500: system.switch_cpus: Raw Gem5 Running in Cycle:        18200000, Inst:        39154917
1608393094500: system.switch_cpus: Raw Gem5 Running in Cycle:        18300000, Inst:        39373687
1608443094500: system.switch_cpus: Raw Gem5 Running in Cycle:        18400000, Inst:        39592400
1608493094500: system.switch_cpus: Raw Gem5 Running in Cycle:        18500000, Inst:        39811104
1608543094500: system.switch_cpus: Raw Gem5 Running in Cycle:        18600000, Inst:        40029774
1608593094500: system.switch_cpus: Raw Gem5 Running in Cycle:        18700000, Inst:        40248613
1608643094500: system.switch_cpus: Raw Gem5 Running in Cycle:        18800000, Inst:        40467194
1608693094500: system.switch_cpus: Raw Gem5 Running in Cycle:        18900000, Inst:        40685887
1608743094500: system.switch_cpus: Raw Gem5 Running in Cycle:        19000000, Inst:        40904577
1608793094500: system.switch_cpus: Raw Gem5 Running in Cycle:        19100000, Inst:        41123326
1608843094500: system.switch_cpus: Raw Gem5 Running in Cycle:        19200000, Inst:        41342065
1608893094500: system.switch_cpus: Raw Gem5 Running in Cycle:        19300000, Inst:        41560769
1608943094500: system.switch_cpus: Raw Gem5 Running in Cycle:        19400000, Inst:        41779418
1608993094500: system.switch_cpus: Raw Gem5 Running in Cycle:        19500000, Inst:        41998241
1609043094500: system.switch_cpus: Raw Gem5 Running in Cycle:        19600000, Inst:        42216861
1609093094500: system.switch_cpus: Raw Gem5 Running in Cycle:        19700000, Inst:        42435521
1609143094500: system.switch_cpus: Raw Gem5 Running in Cycle:        19800000, Inst:        42654241
1609193094500: system.switch_cpus: Raw Gem5 Running in Cycle:        19900000, Inst:        42872952
1609243094500: system.switch_cpus: Raw Gem5 Running in Cycle:        20000000, Inst:        43091713
1609293094500: system.switch_cpus: Raw Gem5 Running in Cycle:        20100000, Inst:        43310429
1609343094500: system.switch_cpus: Raw Gem5 Running in Cycle:        20200000, Inst:        43529083
1609393094500: system.switch_cpus: Raw Gem5 Running in Cycle:        20300000, Inst:        43747873
1609443094500: system.switch_cpus: Raw Gem5 Running in Cycle:        20400000, Inst:        43966566
1609493094500: system.switch_cpus: Raw Gem5 Running in Cycle:        20500000, Inst:        44185180
1609543094500: system.switch_cpus: Raw Gem5 Running in Cycle:        20600000, Inst:        44403888
1609593094500: system.switch_cpus: Raw Gem5 Running in Cycle:        20700000, Inst:        44622567
1609643094500: system.switch_cpus: Raw Gem5 Running in Cycle:        20800000, Inst:        44841362
1609693094500: system.switch_cpus: Raw Gem5 Running in Cycle:        20900000, Inst:        45060093
1609743094500: system.switch_cpus: Raw Gem5 Running in Cycle:        21000000, Inst:        45278748
1609793094500: system.switch_cpus: Raw Gem5 Running in Cycle:        21100000, Inst:        45497523
1609843094500: system.switch_cpus: Raw Gem5 Running in Cycle:        21200000, Inst:        45716231
1609893094500: system.switch_cpus: Raw Gem5 Running in Cycle:        21300000, Inst:        45934822
1609943094500: system.switch_cpus: Raw Gem5 Running in Cycle:        21400000, Inst:        46153548
1609993094500: system.switch_cpus: Raw Gem5 Running in Cycle:        21500000, Inst:        46372221
1610043094500: system.switch_cpus: Raw Gem5 Running in Cycle:        21600000, Inst:        46591025
1610093094500: system.switch_cpus: Raw Gem5 Running in Cycle:        21700000, Inst:        46809749
1610143094500: system.switch_cpus: Raw Gem5 Running in Cycle:        21800000, Inst:        47028410
1610193094500: system.switch_cpus: Raw Gem5 Running in Cycle:        21900000, Inst:        47247163
1610243094500: system.switch_cpus: Raw Gem5 Running in Cycle:        22000000, Inst:        47465896
1610293094500: system.switch_cpus: Raw Gem5 Running in Cycle:        22100000, Inst:        47684484
1610343094500: system.switch_cpus: Raw Gem5 Running in Cycle:        22200000, Inst:        47903213
1610393094500: system.switch_cpus: Raw Gem5 Running in Cycle:        22300000, Inst:        48121874
1610443094500: system.switch_cpus: Raw Gem5 Running in Cycle:        22400000, Inst:        48340691
1610493094500: system.switch_cpus: Raw Gem5 Running in Cycle:        22500000, Inst:        48559361
1610543094500: system.switch_cpus: Raw Gem5 Running in Cycle:        22600000, Inst:        48778072
1610593094500: system.switch_cpus: Raw Gem5 Running in Cycle:        22700000, Inst:        48996813
1610643094500: system.switch_cpus: Raw Gem5 Running in Cycle:        22800000, Inst:        49215551
1610693094500: system.switch_cpus: Raw Gem5 Running in Cycle:        22900000, Inst:        49434149
1610743094500: system.switch_cpus: Raw Gem5 Running in Cycle:        23000000, Inst:        49652877
1610793094500: system.switch_cpus: Raw Gem5 Running in Cycle:        23100000, Inst:        49871527
1610843094500: system.switch_cpus: Raw Gem5 Running in Cycle:        23200000, Inst:        50090354
1610893094500: system.switch_cpus: Raw Gem5 Running in Cycle:        23300000, Inst:        50309015
1610943094500: system.switch_cpus: Raw Gem5 Running in Cycle:        23400000, Inst:        50527735
1610993094500: system.switch_cpus: Raw Gem5 Running in Cycle:        23500000, Inst:        50746425
1611043094500: system.switch_cpus: Raw Gem5 Running in Cycle:        23600000, Inst:        50965196
1611093094500: system.switch_cpus: Raw Gem5 Running in Cycle:        23700000, Inst:        51183812
1611143094500: system.switch_cpus: Raw Gem5 Running in Cycle:        23800000, Inst:        51402542
1611193094500: system.switch_cpus: Raw Gem5 Running in Cycle:        23900000, Inst:        51621192
1611243094500: system.switch_cpus: Raw Gem5 Running in Cycle:        24000000, Inst:        51840008
1611293094500: system.switch_cpus: Raw Gem5 Running in Cycle:        24100000, Inst:        52058664
1611343094500: system.switch_cpus: Raw Gem5 Running in Cycle:        24200000, Inst:        52277380
1611393094500: system.switch_cpus: Raw Gem5 Running in Cycle:        24300000, Inst:        52496054
1611443094500: system.switch_cpus: Raw Gem5 Running in Cycle:        24400000, Inst:        52714857
1611493094500: system.switch_cpus: Raw Gem5 Running in Cycle:        24500000, Inst:        52933463
1611543094500: system.switch_cpus: Raw Gem5 Running in Cycle:        24600000, Inst:        53152150
1611593094500: system.switch_cpus: Raw Gem5 Running in Cycle:        24700000, Inst:        53370856
1611643094500: system.switch_cpus: Raw Gem5 Running in Cycle:        24800000, Inst:        53589618
1611693094500: system.switch_cpus: Raw Gem5 Running in Cycle:        24900000, Inst:        53808315
1611743094500: system.switch_cpus: Raw Gem5 Running in Cycle:        25000000, Inst:        54027045
1611793094500: system.switch_cpus: Raw Gem5 Running in Cycle:        25100000, Inst:        54245716
1611843094500: system.switch_cpus: Raw Gem5 Running in Cycle:        25200000, Inst:        54464522
1611893094500: system.switch_cpus: Raw Gem5 Running in Cycle:        25300000, Inst:        54683095
1611943094500: system.switch_cpus: Raw Gem5 Running in Cycle:        25400000, Inst:        54901797
1611993094500: system.switch_cpus: Raw Gem5 Running in Cycle:        25500000, Inst:        55120521
1612043094500: system.switch_cpus: Raw Gem5 Running in Cycle:        25600000, Inst:        55339264
1612093094500: system.switch_cpus: Raw Gem5 Running in Cycle:        25700000, Inst:        55557980
1612143094500: system.switch_cpus: Raw Gem5 Running in Cycle:        25800000, Inst:        55776710
1612193094500: system.switch_cpus: Raw Gem5 Running in Cycle:        25900000, Inst:        55995361
1612243094500: system.switch_cpus: Raw Gem5 Running in Cycle:        26000000, Inst:        56214186
1612293094500: system.switch_cpus: Raw Gem5 Running in Cycle:        26100000, Inst:        56432710
1612343094500: system.switch_cpus: Raw Gem5 Running in Cycle:        26200000, Inst:        56651428
1612393094500: system.switch_cpus: Raw Gem5 Running in Cycle:        26300000, Inst:        56870153
1612443094500: system.switch_cpus: Raw Gem5 Running in Cycle:        26400000, Inst:        57088912
1612493094500: system.switch_cpus: Raw Gem5 Running in Cycle:        26500000, Inst:        57307646
1612543094500: system.switch_cpus: Raw Gem5 Running in Cycle:        26600000, Inst:        57526373
1612593094500: system.switch_cpus: Raw Gem5 Running in Cycle:        26700000, Inst:        57745024
1612643094500: system.switch_cpus: Raw Gem5 Running in Cycle:        26800000, Inst:        57963846
1612693094500: system.switch_cpus: Raw Gem5 Running in Cycle:        26900000, Inst:        58182365
1612743094500: system.switch_cpus: Raw Gem5 Running in Cycle:        27000000, Inst:        58401074
1612793094500: system.switch_cpus: Raw Gem5 Running in Cycle:        27100000, Inst:        58619777
1612843094500: system.switch_cpus: Raw Gem5 Running in Cycle:        27200000, Inst:        58838577
1612893094500: system.switch_cpus: Raw Gem5 Running in Cycle:        27300000, Inst:        59057309
1612943094500: system.switch_cpus: Raw Gem5 Running in Cycle:        27400000, Inst:        59276021
1612993094500: system.switch_cpus: Raw Gem5 Running in Cycle:        27500000, Inst:        59494689
1613043094500: system.switch_cpus: Raw Gem5 Running in Cycle:        27600000, Inst:        59713483
1613093094500: system.switch_cpus: Raw Gem5 Running in Cycle:        27700000, Inst:        59932151
1613143094500: system.switch_cpus: Raw Gem5 Running in Cycle:        27800000, Inst:        60150724
1613193094500: system.switch_cpus: Raw Gem5 Running in Cycle:        27900000, Inst:        60369431
1613243094500: system.switch_cpus: Raw Gem5 Running in Cycle:        28000000, Inst:        60588242
1613293094500: system.switch_cpus: Raw Gem5 Running in Cycle:        28100000, Inst:        60806944
1613343094500: system.switch_cpus: Raw Gem5 Running in Cycle:        28200000, Inst:        61025631
1613393094500: system.switch_cpus: Raw Gem5 Running in Cycle:        28300000, Inst:        61244353
1613443094500: system.switch_cpus: Raw Gem5 Running in Cycle:        28400000, Inst:        61463099
1613493094500: system.switch_cpus: Raw Gem5 Running in Cycle:        28500000, Inst:        61681812
1613543094500: system.switch_cpus: Raw Gem5 Running in Cycle:        28600000, Inst:        61900389
1613593094500: system.switch_cpus: Raw Gem5 Running in Cycle:        28700000, Inst:        62119059
1613643094500: system.switch_cpus: Raw Gem5 Running in Cycle:        28800000, Inst:        62337898
1613693094500: system.switch_cpus: Raw Gem5 Running in Cycle:        28900000, Inst:        62556578
1613743094500: system.switch_cpus: Raw Gem5 Running in Cycle:        29000000, Inst:        62775292
1613793094500: system.switch_cpus: Raw Gem5 Running in Cycle:        29100000, Inst:        62994018
1613843094500: system.switch_cpus: Raw Gem5 Running in Cycle:        29200000, Inst:        63212754
1613893094500: system.switch_cpus: Raw Gem5 Running in Cycle:        29300000, Inst:        63431477
1613943094500: system.switch_cpus: Raw Gem5 Running in Cycle:        29400000, Inst:        63650054
1613993094500: system.switch_cpus: Raw Gem5 Running in Cycle:        29500000, Inst:        63868703
1614043094500: system.switch_cpus: Raw Gem5 Running in Cycle:        29600000, Inst:        64087534
1614093094500: system.switch_cpus: Raw Gem5 Running in Cycle:        29700000, Inst:        64306205
1614143094500: system.switch_cpus: Raw Gem5 Running in Cycle:        29800000, Inst:        64524917
1614193094500: system.switch_cpus: Raw Gem5 Running in Cycle:        29900000, Inst:        64743634
1614243094500: system.switch_cpus: Raw Gem5 Running in Cycle:        30000000, Inst:        64962409
1614293094500: system.switch_cpus: Raw Gem5 Running in Cycle:        30100000, Inst:        65181141
1614343094500: system.switch_cpus: Raw Gem5 Running in Cycle:        30200000, Inst:        65399714
1614393094500: system.switch_cpus: Raw Gem5 Running in Cycle:        30300000, Inst:        65618368
1614443094500: system.switch_cpus: Raw Gem5 Running in Cycle:        30400000, Inst:        65837158
1614493094500: system.switch_cpus: Raw Gem5 Running in Cycle:        30500000, Inst:        66055851
1614543094500: system.switch_cpus: Raw Gem5 Running in Cycle:        30600000, Inst:        66274555
1614593094500: system.switch_cpus: Raw Gem5 Running in Cycle:        30700000, Inst:        66493273
1614643094500: system.switch_cpus: Raw Gem5 Running in Cycle:        30800000, Inst:        66712073
1614693094500: system.switch_cpus: Raw Gem5 Running in Cycle:        30900000, Inst:        66930803
1614743094500: system.switch_cpus: Raw Gem5 Running in Cycle:        31000000, Inst:        67149378
1614793094500: system.switch_cpus: Raw Gem5 Running in Cycle:        31100000, Inst:        67368033
1614843094500: system.switch_cpus: Raw Gem5 Running in Cycle:        31200000, Inst:        67586808
1614893094500: system.switch_cpus: Raw Gem5 Running in Cycle:        31300000, Inst:        67805516
1614943094500: system.switch_cpus: Raw Gem5 Running in Cycle:        31400000, Inst:        68024220
1614993094500: system.switch_cpus: Raw Gem5 Running in Cycle:        31500000, Inst:        68242904
1615043094500: system.switch_cpus: Raw Gem5 Running in Cycle:        31600000, Inst:        68461739
1615093094500: system.switch_cpus: Raw Gem5 Running in Cycle:        31700000, Inst:        68680427
1615143094500: system.switch_cpus: Raw Gem5 Running in Cycle:        31800000, Inst:        68899042
1615193094500: system.switch_cpus: Raw Gem5 Running in Cycle:        31900000, Inst:        69117695
1615243094500: system.switch_cpus: Raw Gem5 Running in Cycle:        32000000, Inst:        69336449
1615293094500: system.switch_cpus: Raw Gem5 Running in Cycle:        32100000, Inst:        69555181
1615343094500: system.switch_cpus: Raw Gem5 Running in Cycle:        32200000, Inst:        69773885
1615393094500: system.switch_cpus: Raw Gem5 Running in Cycle:        32300000, Inst:        69992550
1615443094500: system.switch_cpus: Raw Gem5 Running in Cycle:        32400000, Inst:        70211393
1615493094500: system.switch_cpus: Raw Gem5 Running in Cycle:        32500000, Inst:        70430054
1615543094500: system.switch_cpus: Raw Gem5 Running in Cycle:        32600000, Inst:        70648654
1615593094500: system.switch_cpus: Raw Gem5 Running in Cycle:        32700000, Inst:        70867357
1615643094500: system.switch_cpus: Raw Gem5 Running in Cycle:        32800000, Inst:        71086106
1615693094500: system.switch_cpus: Raw Gem5 Running in Cycle:        32900000, Inst:        71304837
1615743094500: system.switch_cpus: Raw Gem5 Running in Cycle:        33000000, Inst:        71523549
1615793094500: system.switch_cpus: Raw Gem5 Running in Cycle:        33100000, Inst:        71742200
1615843094500: system.switch_cpus: Raw Gem5 Running in Cycle:        33200000, Inst:        71961014
1615893094500: system.switch_cpus: Raw Gem5 Running in Cycle:        33300000, Inst:        72179700
1615943094500: system.switch_cpus: Raw Gem5 Running in Cycle:        33400000, Inst:        72398300
1615993094500: system.switch_cpus: Raw Gem5 Running in Cycle:        33500000, Inst:        72617020
1616043094500: system.switch_cpus: Raw Gem5 Running in Cycle:        33600000, Inst:        72835710
1616093094500: system.switch_cpus: Raw Gem5 Running in Cycle:        33700000, Inst:        73054481
1616143094500: system.switch_cpus: Raw Gem5 Running in Cycle:        33800000, Inst:        73273210
1616193094500: system.switch_cpus: Raw Gem5 Running in Cycle:        33900000, Inst:        73491865
1616243094500: system.switch_cpus: Raw Gem5 Running in Cycle:        34000000, Inst:        73710641
1616293094500: system.switch_cpus: Raw Gem5 Running in Cycle:        34100000, Inst:        73929348
1616343094500: system.switch_cpus: Raw Gem5 Running in Cycle:        34200000, Inst:        74147949
1616393094500: system.switch_cpus: Raw Gem5 Running in Cycle:        34300000, Inst:        74366665
1616443094500: system.switch_cpus: Raw Gem5 Running in Cycle:        34400000, Inst:        74585339
1616493094500: system.switch_cpus: Raw Gem5 Running in Cycle:        34500000, Inst:        74804142
1616543094500: system.switch_cpus: Raw Gem5 Running in Cycle:        34600000, Inst:        75022875
1616593094500: system.switch_cpus: Raw Gem5 Running in Cycle:        34700000, Inst:        75241530
1616643094500: system.switch_cpus: Raw Gem5 Running in Cycle:        34800000, Inst:        75460302
1616693094500: system.switch_cpus: Raw Gem5 Running in Cycle:        34900000, Inst:        75679013
1616743094500: system.switch_cpus: Raw Gem5 Running in Cycle:        35000000, Inst:        75897717
1616793094500: system.switch_cpus: Raw Gem5 Running in Cycle:        35100000, Inst:        76116330
1616843094500: system.switch_cpus: Raw Gem5 Running in Cycle:        35200000, Inst:        76335001
1616893094500: system.switch_cpus: Raw Gem5 Running in Cycle:        35300000, Inst:        76553807
1616943094500: system.switch_cpus: Raw Gem5 Running in Cycle:        35400000, Inst:        76772516
1616993094500: system.switch_cpus: Raw Gem5 Running in Cycle:        35500000, Inst:        76991190
1617043094500: system.switch_cpus: Raw Gem5 Running in Cycle:        35600000, Inst:        77209945
1617093094500: system.switch_cpus: Raw Gem5 Running in Cycle:        35700000, Inst:        77428678
1617143094500: system.switch_cpus: Raw Gem5 Running in Cycle:        35800000, Inst:        77647382
1617193094500: system.switch_cpus: Raw Gem5 Running in Cycle:        35900000, Inst:        77865995
1617243094500: system.switch_cpus: Raw Gem5 Running in Cycle:        36000000, Inst:        78084646
1617293094500: system.switch_cpus: Raw Gem5 Running in Cycle:        36100000, Inst:        78303471
1617343094500: system.switch_cpus: Raw Gem5 Running in Cycle:        36200000, Inst:        78522134
1617393094500: system.switch_cpus: Raw Gem5 Running in Cycle:        36300000, Inst:        78740854
1617443094500: system.switch_cpus: Raw Gem5 Running in Cycle:        36400000, Inst:        78959573
1617493094500: system.switch_cpus: Raw Gem5 Running in Cycle:        36500000, Inst:        79178329
1617543094500: system.switch_cpus: Raw Gem5 Running in Cycle:        36600000, Inst:        79397043
1617593094500: system.switch_cpus: Raw Gem5 Running in Cycle:        36700000, Inst:        79615658
1617643094500: system.switch_cpus: Raw Gem5 Running in Cycle:        36800000, Inst:        79834309
1617693094500: system.switch_cpus: Raw Gem5 Running in Cycle:        36900000, Inst:        80053131
1617743094500: system.switch_cpus: Raw Gem5 Running in Cycle:        37000000, Inst:        80271793
1617793094500: system.switch_cpus: Raw Gem5 Running in Cycle:        37100000, Inst:        80490507
1617843094500: system.switch_cpus: Raw Gem5 Running in Cycle:        37200000, Inst:        80709188
1617893094500: system.switch_cpus: Raw Gem5 Running in Cycle:        37300000, Inst:        80927976
1617943094500: system.switch_cpus: Raw Gem5 Running in Cycle:        37400000, Inst:        81146706
1617993094500: system.switch_cpus: Raw Gem5 Running in Cycle:        37500000, Inst:        81365306
1618043094500: system.switch_cpus: Raw Gem5 Running in Cycle:        37600000, Inst:        81583974
1618093094500: system.switch_cpus: Raw Gem5 Running in Cycle:        37700000, Inst:        81802768
1618143094500: system.switch_cpus: Raw Gem5 Running in Cycle:        37800000, Inst:        82021436
1618193094500: system.switch_cpus: Raw Gem5 Running in Cycle:        37900000, Inst:        82240161
1618243094500: system.switch_cpus: Raw Gem5 Running in Cycle:        38000000, Inst:        82458835
1618293094500: system.switch_cpus: Raw Gem5 Running in Cycle:        38100000, Inst:        82677639
1618343094500: system.switch_cpus: Raw Gem5 Running in Cycle:        38200000, Inst:        82896372
1618393094500: system.switch_cpus: Raw Gem5 Running in Cycle:        38300000, Inst:        83114916
1618443094500: system.switch_cpus: Raw Gem5 Running in Cycle:        38400000, Inst:        83333638
1618493094500: system.switch_cpus: Raw Gem5 Running in Cycle:        38500000, Inst:        83552384
1618543094500: system.switch_cpus: Raw Gem5 Running in Cycle:        38600000, Inst:        83771097
1618593094500: system.switch_cpus: Raw Gem5 Running in Cycle:        38700000, Inst:        83989826
1618643094500: system.switch_cpus: Raw Gem5 Running in Cycle:        38800000, Inst:        84208491
1618693094500: system.switch_cpus: Raw Gem5 Running in Cycle:        38900000, Inst:        84427304
1618743094500: system.switch_cpus: Raw Gem5 Running in Cycle:        39000000, Inst:        84645989
1618793094500: system.switch_cpus: Raw Gem5 Running in Cycle:        39100000, Inst:        84864576
1618843094500: system.switch_cpus: Raw Gem5 Running in Cycle:        39200000, Inst:        85083301
1618893094500: system.switch_cpus: Raw Gem5 Running in Cycle:        39300000, Inst:        85302035
1618943094500: system.switch_cpus: Raw Gem5 Running in Cycle:        39400000, Inst:        85520762
1618993094500: system.switch_cpus: Raw Gem5 Running in Cycle:        39500000, Inst:        85739490
1619043094500: system.switch_cpus: Raw Gem5 Running in Cycle:        39600000, Inst:        85958141
1619093094500: system.switch_cpus: Raw Gem5 Running in Cycle:        39700000, Inst:        86176967
1619143094500: system.switch_cpus: Raw Gem5 Running in Cycle:        39800000, Inst:        86395629
1619193094500: system.switch_cpus: Raw Gem5 Running in Cycle:        39900000, Inst:        86614199
1619243094500: system.switch_cpus: Raw Gem5 Running in Cycle:        40000000, Inst:        86832911
1619293094500: system.switch_cpus: Raw Gem5 Running in Cycle:        40100000, Inst:        87051693
1619343094500: system.switch_cpus: Raw Gem5 Running in Cycle:        40200000, Inst:        87270426
1619393094500: system.switch_cpus: Raw Gem5 Running in Cycle:        40300000, Inst:        87489155
1619443094500: system.switch_cpus: Raw Gem5 Running in Cycle:        40400000, Inst:        87707806
1619493094500: system.switch_cpus: Raw Gem5 Running in Cycle:        40500000, Inst:        87926622
1619543094500: system.switch_cpus: Raw Gem5 Running in Cycle:        40600000, Inst:        88145282
1619593094500: system.switch_cpus: Raw Gem5 Running in Cycle:        40700000, Inst:        88363840
1619643094500: system.switch_cpus: Raw Gem5 Running in Cycle:        40800000, Inst:        88582558
1619693094500: system.switch_cpus: Raw Gem5 Running in Cycle:        40900000, Inst:        88801358
1619743094500: system.switch_cpus: Raw Gem5 Running in Cycle:        41000000, Inst:        89020088
1619793094500: system.switch_cpus: Raw Gem5 Running in Cycle:        41100000, Inst:        89238779
1619843094500: system.switch_cpus: Raw Gem5 Running in Cycle:        41200000, Inst:        89457471
1619893094500: system.switch_cpus: Raw Gem5 Running in Cycle:        41300000, Inst:        89676244
1619943094500: system.switch_cpus: Raw Gem5 Running in Cycle:        41400000, Inst:        89894931
1619993094500: system.switch_cpus: Raw Gem5 Running in Cycle:        41500000, Inst:        90113505
1620043094500: system.switch_cpus: Raw Gem5 Running in Cycle:        41600000, Inst:        90332189
1620093094500: system.switch_cpus: Raw Gem5 Running in Cycle:        41700000, Inst:        90538812
1620143094500: system.switch_cpus: Raw Gem5 Running in Cycle:        41800000, Inst:        90757467
1620193094500: system.switch_cpus: Raw Gem5 Running in Cycle:        41900000, Inst:        90976239
1620243094500: system.switch_cpus: Raw Gem5 Running in Cycle:        42000000, Inst:        91194950
1620293094500: system.switch_cpus: Raw Gem5 Running in Cycle:        42100000, Inst:        91413654
1620343094500: system.switch_cpus: Raw Gem5 Running in Cycle:        42200000, Inst:        91632267
1620393094500: system.switch_cpus: Raw Gem5 Running in Cycle:        42300000, Inst:        91850938
1620443094500: system.switch_cpus: Raw Gem5 Running in Cycle:        42400000, Inst:        92069744
1620493094500: system.switch_cpus: Raw Gem5 Running in Cycle:        42500000, Inst:        92288453
1620543094500: system.switch_cpus: Raw Gem5 Running in Cycle:        42600000, Inst:        92507127
1620593094500: system.switch_cpus: Raw Gem5 Running in Cycle:        42700000, Inst:        92725882
1620643094500: system.switch_cpus: Raw Gem5 Running in Cycle:        42800000, Inst:        92944615
1620693094500: system.switch_cpus: Raw Gem5 Running in Cycle:        42900000, Inst:        93163319
1620743094500: system.switch_cpus: Raw Gem5 Running in Cycle:        43000000, Inst:        93381932
1620793094500: system.switch_cpus: Raw Gem5 Running in Cycle:        43100000, Inst:        93600586
1620843094500: system.switch_cpus: Raw Gem5 Running in Cycle:        43200000, Inst:        93819408
1620893094500: system.switch_cpus: Raw Gem5 Running in Cycle:        43300000, Inst:        94038071
1620943094500: system.switch_cpus: Raw Gem5 Running in Cycle:        43400000, Inst:        94256791
1620993094500: system.switch_cpus: Raw Gem5 Running in Cycle:        43500000, Inst:        94475518
1621043094500: system.switch_cpus: Raw Gem5 Running in Cycle:        43600000, Inst:        94694269
1621093094500: system.switch_cpus: Raw Gem5 Running in Cycle:        43700000, Inst:        94912981
1621143094500: system.switch_cpus: Raw Gem5 Running in Cycle:        43800000, Inst:        95131595
1621193094500: system.switch_cpus: Raw Gem5 Running in Cycle:        43900000, Inst:        95350246
1621243094500: system.switch_cpus: Raw Gem5 Running in Cycle:        44000000, Inst:        95569073
1621293094500: system.switch_cpus: Raw Gem5 Running in Cycle:        44100000, Inst:        95787734
1621343094500: system.switch_cpus: Raw Gem5 Running in Cycle:        44200000, Inst:        96006451
1621393094500: system.switch_cpus: Raw Gem5 Running in Cycle:        44300000, Inst:        96225133
1621443094500: system.switch_cpus: Raw Gem5 Running in Cycle:        44400000, Inst:        96443914
1621493094500: system.switch_cpus: Raw Gem5 Running in Cycle:        44500000, Inst:        96662643
1621543094500: system.switch_cpus: Raw Gem5 Running in Cycle:        44600000, Inst:        96881251
1621593094500: system.switch_cpus: Raw Gem5 Running in Cycle:        44700000, Inst:        97099911
1621643094500: system.switch_cpus: Raw Gem5 Running in Cycle:        44800000, Inst:        97318711
1621693094500: system.switch_cpus: Raw Gem5 Running in Cycle:        44900000, Inst:        97537378
1621743094500: system.switch_cpus: Raw Gem5 Running in Cycle:        45000000, Inst:        97756098
1621793094500: system.switch_cpus: Raw Gem5 Running in Cycle:        45100000, Inst:        97974773
1621843094500: system.switch_cpus: Raw Gem5 Running in Cycle:        45200000, Inst:        98193576
1621893094500: system.switch_cpus: Raw Gem5 Running in Cycle:        45300000, Inst:        98412309
1621943094500: system.switch_cpus: Raw Gem5 Running in Cycle:        45400000, Inst:        98630861
1621993094500: system.switch_cpus: Raw Gem5 Running in Cycle:        45500000, Inst:        98849575
1622043094500: system.switch_cpus: Raw Gem5 Running in Cycle:        45600000, Inst:        99068329
1622093094500: system.switch_cpus: Raw Gem5 Running in Cycle:        45700000, Inst:        99287034
1622143094500: system.switch_cpus: Raw Gem5 Running in Cycle:        45800000, Inst:        99505763
1622193094500: system.switch_cpus: Raw Gem5 Running in Cycle:        45900000, Inst:        99724431
1622243094500: system.switch_cpus: Raw Gem5 Running in Cycle:        46000000, Inst:        99943241
Exiting @ tick 1622256068500 because a thread reached the max instruction count
end time:(year-mon-day hour-minute-second)19-03-30 22-41-19
