
---------- Begin Simulation Statistics ----------
final_tick                               1622256068500                       # Number of ticks from beginning of simulation (restored from checkpoints and never reset)
host_inst_rate                                 306040                       # Simulator instruction rate (inst/s)
host_mem_usage                                8522608                       # Number of bytes of host memory used
host_op_rate                                   306039                       # Simulator op (including micro ops) rate (op/s)
host_seconds                                   326.76                       # Real time elapsed on the host
host_tick_rate                               70443023                       # Simulator tick rate (ticks/s)
sim_freq                                 1000000000000                       # Frequency of simulated ticks
sim_insts                                   100000021                       # Number of instructions simulated
sim_ops                                     100000021                       # Number of ops (including micro ops) simulated
sim_seconds                                  0.023018                       # Number of seconds simulated
sim_ticks                                 23017633500                       # Number of ticks simulated
system.clk_domain.clock                          1000                       # Clock period in ticks
system.cpu.Branches                                 2                       # Number of branches fetched
system.cpu.committedInsts                          20                       # Number of instructions committed
system.cpu.committedOps                            20                       # Number of ops (including micro ops) committed
system.cpu.dcache.LoadLockedReq_accesses::.switch_cpus.data       803395                       # number of LoadLockedReq accesses(hits+misses)
system.cpu.dcache.LoadLockedReq_accesses::total       803395                       # number of LoadLockedReq accesses(hits+misses)
system.cpu.dcache.LoadLockedReq_avg_miss_latency::.switch_cpus.data 39333.333333                       # average LoadLockedReq miss latency
system.cpu.dcache.LoadLockedReq_avg_miss_latency::total 39333.333333                       # average LoadLockedReq miss latency
system.cpu.dcache.LoadLockedReq_avg_mshr_miss_latency::.switch_cpus.data 38333.333333                       # average LoadLockedReq mshr miss latency
system.cpu.dcache.LoadLockedReq_avg_mshr_miss_latency::total 38333.333333                       # average LoadLockedReq mshr miss latency
system.cpu.dcache.LoadLockedReq_hits::.switch_cpus.data       803392                       # number of LoadLockedReq hits
system.cpu.dcache.LoadLockedReq_hits::total       803392                       # number of LoadLockedReq hits
system.cpu.dcache.LoadLockedReq_miss_latency::.switch_cpus.data       118000                       # number of LoadLockedReq miss cycles
system.cpu.dcache.LoadLockedReq_miss_latency::total       118000                       # number of LoadLockedReq miss cycles
system.cpu.dcache.LoadLockedReq_miss_rate::.switch_cpus.data     0.000004                       # miss rate for LoadLockedReq accesses
system.cpu.dcache.LoadLockedReq_miss_rate::total     0.000004                       # miss rate for LoadLockedReq accesses
system.cpu.dcache.LoadLockedReq_misses::.switch_cpus.data            3                       # number of LoadLockedReq misses
system.cpu.dcache.LoadLockedReq_misses::total            3                       # number of LoadLockedReq misses
system.cpu.dcache.LoadLockedReq_mshr_miss_latency::.switch_cpus.data       115000                       # number of LoadLockedReq MSHR miss cycles
system.cpu.dcache.LoadLockedReq_mshr_miss_latency::total       115000                       # number of LoadLockedReq MSHR miss cycles
system.cpu.dcache.LoadLockedReq_mshr_miss_rate::.switch_cpus.data     0.000004                       # mshr miss rate for LoadLockedReq accesses
system.cpu.dcache.LoadLockedReq_mshr_miss_rate::total     0.000004                       # mshr miss rate for LoadLockedReq accesses
system.cpu.dcache.LoadLockedReq_mshr_misses::.switch_cpus.data            3                       # number of LoadLockedReq MSHR misses
system.cpu.dcache.LoadLockedReq_mshr_misses::total            3                       # number of LoadLockedReq MSHR misses
system.cpu.dcache.ReadReq_accesses::.cpu.data            5                       # number of ReadReq accesses(hits+misses)
system.cpu.dcache.ReadReq_accesses::.switch_cpus.data     18379882                       # number of ReadReq accesses(hits+misses)
system.cpu.dcache.ReadReq_accesses::total     18379887                       # number of ReadReq accesses(hits+misses)
system.cpu.dcache.ReadReq_avg_miss_latency::.switch_cpus.data 34983.146067                       # average ReadReq miss latency
system.cpu.dcache.ReadReq_avg_miss_latency::total 34214.285714                       # average ReadReq miss latency
system.cpu.dcache.ReadReq_avg_mshr_miss_latency::.switch_cpus.data 41822.580645                       # average ReadReq mshr miss latency
system.cpu.dcache.ReadReq_avg_mshr_miss_latency::total 41822.580645                       # average ReadReq mshr miss latency
system.cpu.dcache.ReadReq_hits::.cpu.data            3                       # number of ReadReq hits
system.cpu.dcache.ReadReq_hits::.switch_cpus.data     18379793                       # number of ReadReq hits
system.cpu.dcache.ReadReq_hits::total        18379796                       # number of ReadReq hits
system.cpu.dcache.ReadReq_miss_latency::.switch_cpus.data      3113500                       # number of ReadReq miss cycles
system.cpu.dcache.ReadReq_miss_latency::total      3113500                       # number of ReadReq miss cycles
system.cpu.dcache.ReadReq_miss_rate::.cpu.data     0.400000                       # miss rate for ReadReq accesses
system.cpu.dcache.ReadReq_miss_rate::.switch_cpus.data     0.000005                       # miss rate for ReadReq accesses
system.cpu.dcache.ReadReq_miss_rate::total     0.000005                       # miss rate for ReadReq accesses
system.cpu.dcache.ReadReq_misses::.cpu.data            2                       # number of ReadReq misses
system.cpu.dcache.ReadReq_misses::.switch_cpus.data           89                       # number of ReadReq misses
system.cpu.dcache.ReadReq_misses::total            91                       # number of ReadReq misses
system.cpu.dcache.ReadReq_mshr_hits::.switch_cpus.data           27                       # number of ReadReq MSHR hits
system.cpu.dcache.ReadReq_mshr_hits::total           27                       # number of ReadReq MSHR hits
system.cpu.dcache.ReadReq_mshr_miss_latency::.switch_cpus.data      2593000                       # number of ReadReq MSHR miss cycles
system.cpu.dcache.ReadReq_mshr_miss_latency::total      2593000                       # number of ReadReq MSHR miss cycles
system.cpu.dcache.ReadReq_mshr_miss_rate::.switch_cpus.data     0.000003                       # mshr miss rate for ReadReq accesses
system.cpu.dcache.ReadReq_mshr_miss_rate::total     0.000003                       # mshr miss rate for ReadReq accesses
system.cpu.dcache.ReadReq_mshr_misses::.switch_cpus.data           62                       # number of ReadReq MSHR misses
system.cpu.dcache.ReadReq_mshr_misses::total           62                       # number of ReadReq MSHR misses
system.cpu.dcache.StoreCondReq_accesses::.switch_cpus.data       803395                       # number of StoreCondReq accesses(hits+misses)
system.cpu.dcache.StoreCondReq_accesses::total       803395                       # number of StoreCondReq accesses(hits+misses)
system.cpu.dcache.StoreCondReq_hits::.switch_cpus.data       803395                       # number of StoreCondReq hits
system.cpu.dcache.StoreCondReq_hits::total       803395                       # number of StoreCondReq hits
system.cpu.dcache.WriteReq_accesses::.cpu.data            4                       # number of WriteReq accesses(hits+misses)
system.cpu.dcache.WriteReq_accesses::.switch_cpus.data     13387080                       # number of WriteReq accesses(hits+misses)
system.cpu.dcache.WriteReq_accesses::total     13387084                       # number of WriteReq accesses(hits+misses)
system.cpu.dcache.WriteReq_avg_miss_latency::.switch_cpus.data 39586.835825                       # average WriteReq miss latency
system.cpu.dcache.WriteReq_avg_miss_latency::total 39586.231934                       # average WriteReq miss latency
system.cpu.dcache.WriteReq_avg_mshr_miss_latency::.switch_cpus.data 47458.437443                       # average WriteReq mshr miss latency
system.cpu.dcache.WriteReq_avg_mshr_miss_latency::total 47458.437443                       # average WriteReq mshr miss latency
system.cpu.dcache.WriteReq_hits::.cpu.data            2                       # number of WriteReq hits
system.cpu.dcache.WriteReq_hits::.switch_cpus.data     13255976                       # number of WriteReq hits
system.cpu.dcache.WriteReq_hits::total       13255978                       # number of WriteReq hits
system.cpu.dcache.WriteReq_miss_latency::.switch_cpus.data   5189992524                       # number of WriteReq miss cycles
system.cpu.dcache.WriteReq_miss_latency::total   5189992524                       # number of WriteReq miss cycles
system.cpu.dcache.WriteReq_miss_rate::.cpu.data     0.500000                       # miss rate for WriteReq accesses
system.cpu.dcache.WriteReq_miss_rate::.switch_cpus.data     0.009793                       # miss rate for WriteReq accesses
system.cpu.dcache.WriteReq_miss_rate::total     0.009793                       # miss rate for WriteReq accesses
system.cpu.dcache.WriteReq_misses::.cpu.data            2                       # number of WriteReq misses
system.cpu.dcache.WriteReq_misses::.switch_cpus.data       131104                       # number of WriteReq misses
system.cpu.dcache.WriteReq_misses::total       131106                       # number of WriteReq misses
system.cpu.dcache.WriteReq_mshr_hits::.switch_cpus.data       114695                       # number of WriteReq MSHR hits
system.cpu.dcache.WriteReq_mshr_hits::total       114695                       # number of WriteReq MSHR hits
system.cpu.dcache.WriteReq_mshr_miss_latency::.switch_cpus.data    778745500                       # number of WriteReq MSHR miss cycles
system.cpu.dcache.WriteReq_mshr_miss_latency::total    778745500                       # number of WriteReq MSHR miss cycles
system.cpu.dcache.WriteReq_mshr_miss_rate::.switch_cpus.data     0.001226                       # mshr miss rate for WriteReq accesses
system.cpu.dcache.WriteReq_mshr_miss_rate::total     0.001226                       # mshr miss rate for WriteReq accesses
system.cpu.dcache.WriteReq_mshr_misses::.switch_cpus.data        16409                       # number of WriteReq MSHR misses
system.cpu.dcache.WriteReq_mshr_misses::total        16409                       # number of WriteReq MSHR misses
system.cpu.dcache.avg_blocked_cycles::no_mshrs    29.086542                       # average number of cycles each access was blocked
system.cpu.dcache.avg_blocked_cycles::no_targets          nan                       # average number of cycles each access was blocked
system.cpu.dcache.blocked::no_mshrs             11220                       # number of cycles access was blocked
system.cpu.dcache.blocked::no_targets               0                       # number of cycles access was blocked
system.cpu.dcache.blocked_cycles::no_mshrs       326351                       # number of cycles access was blocked
system.cpu.dcache.blocked_cycles::no_targets            0                       # number of cycles access was blocked
system.cpu.dcache.demand_accesses::.cpu.data            9                       # number of demand (read+write) accesses
system.cpu.dcache.demand_accesses::.switch_cpus.data     31766962                       # number of demand (read+write) accesses
system.cpu.dcache.demand_accesses::total     31766971                       # number of demand (read+write) accesses
system.cpu.dcache.demand_avg_miss_latency::.switch_cpus.data 39583.712729                       # average overall miss latency
system.cpu.dcache.demand_avg_miss_latency::total 39582.505880                       # average overall miss latency
system.cpu.dcache.demand_avg_mshr_miss_latency::.switch_cpus.data 47437.222998                       # average overall mshr miss latency
system.cpu.dcache.demand_avg_mshr_miss_latency::total 47437.222998                       # average overall mshr miss latency
system.cpu.dcache.demand_hits::.cpu.data            5                       # number of demand (read+write) hits
system.cpu.dcache.demand_hits::.switch_cpus.data     31635769                       # number of demand (read+write) hits
system.cpu.dcache.demand_hits::total         31635774                       # number of demand (read+write) hits
system.cpu.dcache.demand_miss_latency::.switch_cpus.data   5193106024                       # number of demand (read+write) miss cycles
system.cpu.dcache.demand_miss_latency::total   5193106024                       # number of demand (read+write) miss cycles
system.cpu.dcache.demand_miss_rate::.cpu.data     0.444444                       # miss rate for demand accesses
system.cpu.dcache.demand_miss_rate::.switch_cpus.data     0.004130                       # miss rate for demand accesses
system.cpu.dcache.demand_miss_rate::total     0.004130                       # miss rate for demand accesses
system.cpu.dcache.demand_misses::.cpu.data            4                       # number of demand (read+write) misses
system.cpu.dcache.demand_misses::.switch_cpus.data       131193                       # number of demand (read+write) misses
system.cpu.dcache.demand_misses::total         131197                       # number of demand (read+write) misses
system.cpu.dcache.demand_mshr_hits::.switch_cpus.data       114722                       # number of demand (read+write) MSHR hits
system.cpu.dcache.demand_mshr_hits::total       114722                       # number of demand (read+write) MSHR hits
system.cpu.dcache.demand_mshr_miss_latency::.switch_cpus.data    781338500                       # number of demand (read+write) MSHR miss cycles
system.cpu.dcache.demand_mshr_miss_latency::total    781338500                       # number of demand (read+write) MSHR miss cycles
system.cpu.dcache.demand_mshr_miss_rate::.switch_cpus.data     0.000518                       # mshr miss rate for demand accesses
system.cpu.dcache.demand_mshr_miss_rate::total     0.000518                       # mshr miss rate for demand accesses
system.cpu.dcache.demand_mshr_misses::.switch_cpus.data        16471                       # number of demand (read+write) MSHR misses
system.cpu.dcache.demand_mshr_misses::total        16471                       # number of demand (read+write) MSHR misses
system.cpu.dcache.overall_accesses::.cpu.data            9                       # number of overall (read+write) accesses
system.cpu.dcache.overall_accesses::.switch_cpus.data     31766962                       # number of overall (read+write) accesses
system.cpu.dcache.overall_accesses::total     31766971                       # number of overall (read+write) accesses
system.cpu.dcache.overall_avg_miss_latency::.switch_cpus.data 39583.712729                       # average overall miss latency
system.cpu.dcache.overall_avg_miss_latency::total 39582.505880                       # average overall miss latency
system.cpu.dcache.overall_avg_mshr_miss_latency::.switch_cpus.data 47437.222998                       # average overall mshr miss latency
system.cpu.dcache.overall_avg_mshr_miss_latency::total 47437.222998                       # average overall mshr miss latency
system.cpu.dcache.overall_hits::.cpu.data            5                       # number of overall hits
system.cpu.dcache.overall_hits::.switch_cpus.data     31635769                       # number of overall hits
system.cpu.dcache.overall_hits::total        31635774                       # number of overall hits
system.cpu.dcache.overall_miss_latency::.switch_cpus.data   5193106024                       # number of overall miss cycles
system.cpu.dcache.overall_miss_latency::total   5193106024                       # number of overall miss cycles
system.cpu.dcache.overall_miss_rate::.cpu.data     0.444444                       # miss rate for overall accesses
system.cpu.dcache.overall_miss_rate::.switch_cpus.data     0.004130                       # miss rate for overall accesses
system.cpu.dcache.overall_miss_rate::total     0.004130                       # miss rate for overall accesses
system.cpu.dcache.overall_misses::.cpu.data            4                       # number of overall misses
system.cpu.dcache.overall_misses::.switch_cpus.data       131193                       # number of overall misses
system.cpu.dcache.overall_misses::total        131197                       # number of overall misses
system.cpu.dcache.overall_mshr_hits::.switch_cpus.data       114722                       # number of overall MSHR hits
system.cpu.dcache.overall_mshr_hits::total       114722                       # number of overall MSHR hits
system.cpu.dcache.overall_mshr_miss_latency::.switch_cpus.data    781338500                       # number of overall MSHR miss cycles
system.cpu.dcache.overall_mshr_miss_latency::total    781338500                       # number of overall MSHR miss cycles
system.cpu.dcache.overall_mshr_miss_rate::.switch_cpus.data     0.000518                       # mshr miss rate for overall accesses
system.cpu.dcache.overall_mshr_miss_rate::total     0.000518                       # mshr miss rate for overall accesses
system.cpu.dcache.overall_mshr_misses::.switch_cpus.data        16471                       # number of overall MSHR misses
system.cpu.dcache.overall_mshr_misses::total        16471                       # number of overall MSHR misses
system.cpu.dcache.pwrStateResidencyTicks::UNDEFINED 1622256068500                       # Cumulative time (in ticks) in various power states
system.cpu.dcache.replacements                  15966                       # number of replacements
system.cpu.dcache.tags.age_task_id_blocks_1024::3          512                       # Occupied blocks per task id
system.cpu.dcache.tags.avg_refs           2018.390521                       # Average number of references to valid blocks.
system.cpu.dcache.tags.data_accesses        267006566                       # Number of data accesses
system.cpu.dcache.tags.occ_blocks::.cpu.data     1.001945                       # Average occupied blocks per requestor
system.cpu.dcache.tags.occ_blocks::.switch_cpus.data   391.368709                       # Average occupied blocks per requestor
system.cpu.dcache.tags.occ_percent::.cpu.data     0.001957                       # Average percentage of cache occupancy
system.cpu.dcache.tags.occ_percent::.switch_cpus.data     0.764392                       # Average percentage of cache occupancy
system.cpu.dcache.tags.occ_percent::total     0.766349                       # Average percentage of cache occupancy
system.cpu.dcache.tags.occ_task_id_blocks::1024          512                       # Occupied blocks per task id
system.cpu.dcache.tags.occ_task_id_percent::1024            1                       # Percentage of cache occupancy per task id
system.cpu.dcache.tags.pwrStateResidencyTicks::UNDEFINED 1622256068500                       # Cumulative time (in ticks) in various power states
system.cpu.dcache.tags.sampled_refs             16478                       # Sample count of references to valid blocks.
system.cpu.dcache.tags.tag_accesses         267006566                       # Number of tag accesses
system.cpu.dcache.tags.tagsinuse           392.370654                       # Cycle average of tags in use
system.cpu.dcache.tags.total_refs            33259039                       # Total number of references to valid blocks.
system.cpu.dcache.tags.warmup_cycle      1599238435500                       # Cycle when the warmup percentage was hit.
system.cpu.dcache.writebacks::.writebacks        15937                       # number of writebacks
system.cpu.dcache.writebacks::total             15937                       # number of writebacks
system.cpu.dtb.data_accesses                        9                       # DTB accesses
system.cpu.dtb.data_acv                             0                       # DTB access violations
system.cpu.dtb.data_hits                            9                       # DTB hits
system.cpu.dtb.data_misses                          0                       # DTB misses
system.cpu.dtb.fetch_accesses                       0                       # ITB accesses
system.cpu.dtb.fetch_acv                            0                       # ITB acv
system.cpu.dtb.fetch_hits                           0                       # ITB hits
system.cpu.dtb.fetch_misses                         0                       # ITB misses
system.cpu.dtb.pwrStateResidencyTicks::UNDEFINED 1622256068500                       # Cumulative time (in ticks) in various power states
system.cpu.dtb.read_accesses                        5                       # DTB read accesses
system.cpu.dtb.read_acv                             0                       # DTB read access violations
system.cpu.dtb.read_hits                            5                       # DTB read hits
system.cpu.dtb.read_misses                          0                       # DTB read misses
system.cpu.dtb.write_accesses                       4                       # DTB write accesses
system.cpu.dtb.write_acv                            0                       # DTB write access violations
system.cpu.dtb.write_hits                           4                       # DTB write hits
system.cpu.dtb.write_misses                         0                       # DTB write misses
system.cpu.icache.ReadReq_accesses::.cpu.inst           20                       # number of ReadReq accesses(hits+misses)
system.cpu.icache.ReadReq_accesses::.switch_cpus.inst     12790914                       # number of ReadReq accesses(hits+misses)
system.cpu.icache.ReadReq_accesses::total     12790934                       # number of ReadReq accesses(hits+misses)
system.cpu.icache.ReadReq_avg_miss_latency::.switch_cpus.inst 81650.793651                       # average ReadReq miss latency
system.cpu.icache.ReadReq_avg_miss_latency::total        80375                       # average ReadReq miss latency
system.cpu.icache.ReadReq_avg_mshr_miss_latency::.switch_cpus.inst 85803.030303                       # average ReadReq mshr miss latency
system.cpu.icache.ReadReq_avg_mshr_miss_latency::total 85803.030303                       # average ReadReq mshr miss latency
system.cpu.icache.ReadReq_hits::.cpu.inst           18                       # number of ReadReq hits
system.cpu.icache.ReadReq_hits::.switch_cpus.inst     12790788                       # number of ReadReq hits
system.cpu.icache.ReadReq_hits::total        12790806                       # number of ReadReq hits
system.cpu.icache.ReadReq_miss_latency::.switch_cpus.inst     10288000                       # number of ReadReq miss cycles
system.cpu.icache.ReadReq_miss_latency::total     10288000                       # number of ReadReq miss cycles
system.cpu.icache.ReadReq_miss_rate::.cpu.inst     0.100000                       # miss rate for ReadReq accesses
system.cpu.icache.ReadReq_miss_rate::.switch_cpus.inst     0.000010                       # miss rate for ReadReq accesses
system.cpu.icache.ReadReq_miss_rate::total     0.000010                       # miss rate for ReadReq accesses
system.cpu.icache.ReadReq_misses::.cpu.inst            2                       # number of ReadReq misses
system.cpu.icache.ReadReq_misses::.switch_cpus.inst          126                       # number of ReadReq misses
system.cpu.icache.ReadReq_misses::total           128                       # number of ReadReq misses
system.cpu.icache.ReadReq_mshr_hits::.switch_cpus.inst           27                       # number of ReadReq MSHR hits
system.cpu.icache.ReadReq_mshr_hits::total           27                       # number of ReadReq MSHR hits
system.cpu.icache.ReadReq_mshr_miss_latency::.switch_cpus.inst      8494500                       # number of ReadReq MSHR miss cycles
system.cpu.icache.ReadReq_mshr_miss_latency::total      8494500                       # number of ReadReq MSHR miss cycles
system.cpu.icache.ReadReq_mshr_miss_rate::.switch_cpus.inst     0.000008                       # mshr miss rate for ReadReq accesses
system.cpu.icache.ReadReq_mshr_miss_rate::total     0.000008                       # mshr miss rate for ReadReq accesses
system.cpu.icache.ReadReq_mshr_misses::.switch_cpus.inst           99                       # number of ReadReq MSHR misses
system.cpu.icache.ReadReq_mshr_misses::total           99                       # number of ReadReq MSHR misses
system.cpu.icache.avg_blocked_cycles::no_mshrs           55                       # average number of cycles each access was blocked
system.cpu.icache.avg_blocked_cycles::no_targets          nan                       # average number of cycles each access was blocked
system.cpu.icache.blocked::no_mshrs                 1                       # number of cycles access was blocked
system.cpu.icache.blocked::no_targets               0                       # number of cycles access was blocked
system.cpu.icache.blocked_cycles::no_mshrs           55                       # number of cycles access was blocked
system.cpu.icache.blocked_cycles::no_targets            0                       # number of cycles access was blocked
system.cpu.icache.demand_accesses::.cpu.inst           20                       # number of demand (read+write) accesses
system.cpu.icache.demand_accesses::.switch_cpus.inst     12790914                       # number of demand (read+write) accesses
system.cpu.icache.demand_accesses::total     12790934                       # number of demand (read+write) accesses
system.cpu.icache.demand_avg_miss_latency::.switch_cpus.inst 81650.793651                       # average overall miss latency
system.cpu.icache.demand_avg_miss_latency::total        80375                       # average overall miss latency
system.cpu.icache.demand_avg_mshr_miss_latency::.switch_cpus.inst 85803.030303                       # average overall mshr miss latency
system.cpu.icache.demand_avg_mshr_miss_latency::total 85803.030303                       # average overall mshr miss latency
system.cpu.icache.demand_hits::.cpu.inst           18                       # number of demand (read+write) hits
system.cpu.icache.demand_hits::.switch_cpus.inst     12790788                       # number of demand (read+write) hits
system.cpu.icache.demand_hits::total         12790806                       # number of demand (read+write) hits
system.cpu.icache.demand_miss_latency::.switch_cpus.inst     10288000                       # number of demand (read+write) miss cycles
system.cpu.icache.demand_miss_latency::total     10288000                       # number of demand (read+write) miss cycles
system.cpu.icache.demand_miss_rate::.cpu.inst     0.100000                       # miss rate for demand accesses
system.cpu.icache.demand_miss_rate::.switch_cpus.inst     0.000010                       # miss rate for demand accesses
system.cpu.icache.demand_miss_rate::total     0.000010                       # miss rate for demand accesses
system.cpu.icache.demand_misses::.cpu.inst            2                       # number of demand (read+write) misses
system.cpu.icache.demand_misses::.switch_cpus.inst          126                       # number of demand (read+write) misses
system.cpu.icache.demand_misses::total            128                       # number of demand (read+write) misses
system.cpu.icache.demand_mshr_hits::.switch_cpus.inst           27                       # number of demand (read+write) MSHR hits
system.cpu.icache.demand_mshr_hits::total           27                       # number of demand (read+write) MSHR hits
system.cpu.icache.demand_mshr_miss_latency::.switch_cpus.inst      8494500                       # number of demand (read+write) MSHR miss cycles
system.cpu.icache.demand_mshr_miss_latency::total      8494500                       # number of demand (read+write) MSHR miss cycles
system.cpu.icache.demand_mshr_miss_rate::.switch_cpus.inst     0.000008                       # mshr miss rate for demand accesses
system.cpu.icache.demand_mshr_miss_rate::total     0.000008                       # mshr miss rate for demand accesses
system.cpu.icache.demand_mshr_misses::.switch_cpus.inst           99                       # number of demand (read+write) MSHR misses
system.cpu.icache.demand_mshr_misses::total           99                       # number of demand (read+write) MSHR misses
system.cpu.icache.overall_accesses::.cpu.inst           20                       # number of overall (read+write) accesses
system.cpu.icache.overall_accesses::.switch_cpus.inst     12790914                       # number of overall (read+write) accesses
system.cpu.icache.overall_accesses::total     12790934                       # number of overall (read+write) accesses
system.cpu.icache.overall_avg_miss_latency::.switch_cpus.inst 81650.793651                       # average overall miss latency
system.cpu.icache.overall_avg_miss_latency::total        80375                       # average overall miss latency
system.cpu.icache.overall_avg_mshr_miss_latency::.switch_cpus.inst 85803.030303                       # average overall mshr miss latency
system.cpu.icache.overall_avg_mshr_miss_latency::total 85803.030303                       # average overall mshr miss latency
system.cpu.icache.overall_hits::.cpu.inst           18                       # number of overall hits
system.cpu.icache.overall_hits::.switch_cpus.inst     12790788                       # number of overall hits
system.cpu.icache.overall_hits::total        12790806                       # number of overall hits
system.cpu.icache.overall_miss_latency::.switch_cpus.inst     10288000                       # number of overall miss cycles
system.cpu.icache.overall_miss_latency::total     10288000                       # number of overall miss cycles
system.cpu.icache.overall_miss_rate::.cpu.inst     0.100000                       # miss rate for overall accesses
system.cpu.icache.overall_miss_rate::.switch_cpus.inst     0.000010                       # miss rate for overall accesses
system.cpu.icache.overall_miss_rate::total     0.000010                       # miss rate for overall accesses
system.cpu.icache.overall_misses::.cpu.inst            2                       # number of overall misses
system.cpu.icache.overall_misses::.switch_cpus.inst          126                       # number of overall misses
system.cpu.icache.overall_misses::total           128                       # number of overall misses
system.cpu.icache.overall_mshr_hits::.switch_cpus.inst           27                       # number of overall MSHR hits
system.cpu.icache.overall_mshr_hits::total           27                       # number of overall MSHR hits
system.cpu.icache.overall_mshr_miss_latency::.switch_cpus.inst      8494500                       # number of overall MSHR miss cycles
system.cpu.icache.overall_mshr_miss_latency::total      8494500                       # number of overall MSHR miss cycles
system.cpu.icache.overall_mshr_miss_rate::.switch_cpus.inst     0.000008                       # mshr miss rate for overall accesses
system.cpu.icache.overall_mshr_miss_rate::total     0.000008                       # mshr miss rate for overall accesses
system.cpu.icache.overall_mshr_misses::.switch_cpus.inst           99                       # number of overall MSHR misses
system.cpu.icache.overall_mshr_misses::total           99                       # number of overall MSHR misses
system.cpu.icache.pwrStateResidencyTicks::UNDEFINED 1622256068500                       # Cumulative time (in ticks) in various power states
system.cpu.icache.replacements                      0                       # number of replacements
system.cpu.icache.tags.age_task_id_blocks_1024::4          101                       # Occupied blocks per task id
system.cpu.icache.tags.avg_refs          126642.643564                       # Average number of references to valid blocks.
system.cpu.icache.tags.data_accesses        102327573                       # Number of data accesses
system.cpu.icache.tags.occ_blocks::.cpu.inst     2.000000                       # Average occupied blocks per requestor
system.cpu.icache.tags.occ_blocks::.switch_cpus.inst    96.978407                       # Average occupied blocks per requestor
system.cpu.icache.tags.occ_percent::.cpu.inst     0.003906                       # Average percentage of cache occupancy
system.cpu.icache.tags.occ_percent::.switch_cpus.inst     0.189411                       # Average percentage of cache occupancy
system.cpu.icache.tags.occ_percent::total     0.193317                       # Average percentage of cache occupancy
system.cpu.icache.tags.occ_task_id_blocks::1024          101                       # Occupied blocks per task id
system.cpu.icache.tags.occ_task_id_percent::1024     0.197266                       # Percentage of cache occupancy per task id
system.cpu.icache.tags.pwrStateResidencyTicks::UNDEFINED 1622256068500                       # Cumulative time (in ticks) in various power states
system.cpu.icache.tags.sampled_refs               101                       # Sample count of references to valid blocks.
system.cpu.icache.tags.tag_accesses         102327573                       # Number of tag accesses
system.cpu.icache.tags.tagsinuse            98.978407                       # Cycle average of tags in use
system.cpu.icache.tags.total_refs            12790907                       # Total number of references to valid blocks.
system.cpu.icache.tags.warmup_cycle      1599238435500                       # Cycle when the warmup percentage was hit.
system.cpu.idle_fraction                            0                       # Percentage of idle cycles
system.cpu.itb.data_accesses                        0                       # DTB accesses
system.cpu.itb.data_acv                             0                       # DTB access violations
system.cpu.itb.data_hits                            0                       # DTB hits
system.cpu.itb.data_misses                          0                       # DTB misses
system.cpu.itb.fetch_accesses                      20                       # ITB accesses
system.cpu.itb.fetch_acv                            0                       # ITB acv
system.cpu.itb.fetch_hits                          20                       # ITB hits
system.cpu.itb.fetch_misses                         0                       # ITB misses
system.cpu.itb.pwrStateResidencyTicks::UNDEFINED 1622256068500                       # Cumulative time (in ticks) in various power states
system.cpu.itb.read_accesses                        0                       # DTB read accesses
system.cpu.itb.read_acv                             0                       # DTB read access violations
system.cpu.itb.read_hits                            0                       # DTB read hits
system.cpu.itb.read_misses                          0                       # DTB read misses
system.cpu.itb.write_accesses                       0                       # DTB write accesses
system.cpu.itb.write_acv                            0                       # DTB write access violations
system.cpu.itb.write_hits                           0                       # DTB write hits
system.cpu.itb.write_misses                         0                       # DTB write misses
system.cpu.not_idle_fraction                        1                       # Percentage of non-idle cycles
system.cpu.numCycles                               20                       # number of cpu cycles simulated
system.cpu.numPwrStateTransitions                   1                       # Number of power state transitions
system.cpu.numWorkItemsCompleted                    0                       # number of work items this cpu completed
system.cpu.numWorkItemsStarted                      0                       # number of work items this cpu started
system.cpu.num_busy_cycles                         20                       # Number of busy cycles
system.cpu.num_conditional_control_insts            2                       # number of instructions that are conditional controls
system.cpu.num_fp_alu_accesses                      0                       # Number of float alu accesses
system.cpu.num_fp_insts                             0                       # number of float instructions
system.cpu.num_fp_register_reads                    0                       # number of times the floating registers were read
system.cpu.num_fp_register_writes                   0                       # number of times the floating registers were written
system.cpu.num_func_calls                           0                       # number of times a function call or return occured
system.cpu.num_idle_cycles                          0                       # Number of idle cycles
system.cpu.num_int_alu_accesses                    20                       # Number of integer alu accesses
system.cpu.num_int_insts                           20                       # number of integer instructions
system.cpu.num_int_register_reads                  31                       # number of times the integer registers were read
system.cpu.num_int_register_writes                 14                       # number of times the integer registers were written
system.cpu.num_load_insts                           5                       # Number of load instructions
system.cpu.num_mem_refs                             9                       # number of memory refs
system.cpu.num_store_insts                          4                       # Number of store instructions
system.cpu.num_vec_alu_accesses                     0                       # Number of vector alu accesses
system.cpu.num_vec_insts                            0                       # number of vector instructions
system.cpu.num_vec_register_reads                   0                       # number of times the vector registers were read
system.cpu.num_vec_register_writes                  0                       # number of times the vector registers were written
system.cpu.op_class::No_OpClass                     0      0.00%      0.00% # Class of executed instruction
system.cpu.op_class::IntAlu                        10     50.00%     50.00% # Class of executed instruction
system.cpu.op_class::IntMult                        1      5.00%     55.00% # Class of executed instruction
system.cpu.op_class::IntDiv                         0      0.00%     55.00% # Class of executed instruction
system.cpu.op_class::FloatAdd                       0      0.00%     55.00% # Class of executed instruction
system.cpu.op_class::FloatCmp                       0      0.00%     55.00% # Class of executed instruction
system.cpu.op_class::FloatCvt                       0      0.00%     55.00% # Class of executed instruction
system.cpu.op_class::FloatMult                      0      0.00%     55.00% # Class of executed instruction
system.cpu.op_class::FloatMultAcc                   0      0.00%     55.00% # Class of executed instruction
system.cpu.op_class::FloatDiv                       0      0.00%     55.00% # Class of executed instruction
system.cpu.op_class::FloatMisc                      0      0.00%     55.00% # Class of executed instruction
system.cpu.op_class::FloatSqrt                      0      0.00%     55.00% # Class of executed instruction
system.cpu.op_class::SimdAdd                        0      0.00%     55.00% # Class of executed instruction
system.cpu.op_class::SimdAddAcc                     0      0.00%     55.00% # Class of executed instruction
system.cpu.op_class::SimdAlu                        0      0.00%     55.00% # Class of executed instruction
system.cpu.op_class::SimdCmp                        0      0.00%     55.00% # Class of executed instruction
system.cpu.op_class::SimdCvt                        0      0.00%     55.00% # Class of executed instruction
system.cpu.op_class::SimdMisc                       0      0.00%     55.00% # Class of executed instruction
system.cpu.op_class::SimdMult                       0      0.00%     55.00% # Class of executed instruction
system.cpu.op_class::SimdMultAcc                    0      0.00%     55.00% # Class of executed instruction
system.cpu.op_class::SimdShift                      0      0.00%     55.00% # Class of executed instruction
system.cpu.op_class::SimdShiftAcc                   0      0.00%     55.00% # Class of executed instruction
system.cpu.op_class::SimdSqrt                       0      0.00%     55.00% # Class of executed instruction
system.cpu.op_class::SimdFloatAdd                   0      0.00%     55.00% # Class of executed instruction
system.cpu.op_class::SimdFloatAlu                   0      0.00%     55.00% # Class of executed instruction
system.cpu.op_class::SimdFloatCmp                   0      0.00%     55.00% # Class of executed instruction
system.cpu.op_class::SimdFloatCvt                   0      0.00%     55.00% # Class of executed instruction
system.cpu.op_class::SimdFloatDiv                   0      0.00%     55.00% # Class of executed instruction
system.cpu.op_class::SimdFloatMisc                  0      0.00%     55.00% # Class of executed instruction
system.cpu.op_class::SimdFloatMult                  0      0.00%     55.00% # Class of executed instruction
system.cpu.op_class::SimdFloatMultAcc               0      0.00%     55.00% # Class of executed instruction
system.cpu.op_class::SimdFloatSqrt                  0      0.00%     55.00% # Class of executed instruction
system.cpu.op_class::SimdAes                        0      0.00%     55.00% # Class of executed instruction
system.cpu.op_class::SimdAesMix                     0      0.00%     55.00% # Class of executed instruction
system.cpu.op_class::SimdSha1Hash                   0      0.00%     55.00% # Class of executed instruction
system.cpu.op_class::SimdSha1Hash2                  0      0.00%     55.00% # Class of executed instruction
system.cpu.op_class::SimdSha256Hash                 0      0.00%     55.00% # Class of executed instruction
system.cpu.op_class::SimdSha256Hash2                0      0.00%     55.00% # Class of executed instruction
system.cpu.op_class::SimdShaSigma2                  0      0.00%     55.00% # Class of executed instruction
system.cpu.op_class::SimdShaSigma3                  0      0.00%     55.00% # Class of executed instruction
system.cpu.op_class::MemRead                        5     25.00%     80.00% # Class of executed instruction
system.cpu.op_class::MemWrite                       4     20.00%    100.00% # Class of executed instruction
system.cpu.op_class::FloatMemRead                   0      0.00%    100.00% # Class of executed instruction
system.cpu.op_class::FloatMemWrite                  0      0.00%    100.00% # Class of executed instruction
system.cpu.op_class::IprAccess                      0      0.00%    100.00% # Class of executed instruction
system.cpu.op_class::InstPrefetch                   0      0.00%    100.00% # Class of executed instruction
system.cpu.op_class::total                         20                       # Class of executed instruction
system.cpu.pwrStateResidencyTicks::ON           10000                       # Cumulative time (in ticks) in various power states
system.cpu.pwrStateResidencyTicks::OFF    23017623500                       # Cumulative time (in ticks) in various power states
system.cpu.workload.numSyscalls                     0                       # Number of system calls
system.cpu_clk_domain.clock                       500                       # Clock period in ticks
system.cpu_voltage_domain.voltage                   1                       # Voltage in Volts
system.l2.InvalidateReq_accesses::.switch_cpus.data          255                       # number of InvalidateReq accesses(hits+misses)
system.l2.InvalidateReq_accesses::total           255                       # number of InvalidateReq accesses(hits+misses)
system.l2.InvalidateReq_avg_mshr_miss_latency::.switch_cpus.data 19484.126984                       # average InvalidateReq mshr miss latency
system.l2.InvalidateReq_avg_mshr_miss_latency::total 19484.126984                       # average InvalidateReq mshr miss latency
system.l2.InvalidateReq_hits::.switch_cpus.data          192                       # number of InvalidateReq hits
system.l2.InvalidateReq_hits::total               192                       # number of InvalidateReq hits
system.l2.InvalidateReq_miss_rate::.switch_cpus.data     0.247059                       # miss rate for InvalidateReq accesses
system.l2.InvalidateReq_miss_rate::total     0.247059                       # miss rate for InvalidateReq accesses
system.l2.InvalidateReq_misses::.switch_cpus.data           63                       # number of InvalidateReq misses
system.l2.InvalidateReq_misses::total              63                       # number of InvalidateReq misses
system.l2.InvalidateReq_mshr_miss_latency::.switch_cpus.data      1227500                       # number of InvalidateReq MSHR miss cycles
system.l2.InvalidateReq_mshr_miss_latency::total      1227500                       # number of InvalidateReq MSHR miss cycles
system.l2.InvalidateReq_mshr_miss_rate::.switch_cpus.data     0.247059                       # mshr miss rate for InvalidateReq accesses
system.l2.InvalidateReq_mshr_miss_rate::total     0.247059                       # mshr miss rate for InvalidateReq accesses
system.l2.InvalidateReq_mshr_misses::.switch_cpus.data           63                       # number of InvalidateReq MSHR misses
system.l2.InvalidateReq_mshr_misses::total           63                       # number of InvalidateReq MSHR misses
system.l2.ReadCleanReq_accesses::.cpu.inst            2                       # number of ReadCleanReq accesses(hits+misses)
system.l2.ReadCleanReq_accesses::.switch_cpus.inst           99                       # number of ReadCleanReq accesses(hits+misses)
system.l2.ReadCleanReq_accesses::total            101                       # number of ReadCleanReq accesses(hits+misses)
system.l2.ReadCleanReq_avg_miss_latency::.switch_cpus.inst 84303.030303                       # average ReadCleanReq miss latency
system.l2.ReadCleanReq_avg_miss_latency::total 82633.663366                       # average ReadCleanReq miss latency
system.l2.ReadCleanReq_avg_mshr_miss_latency::.switch_cpus.inst 74303.030303                       # average ReadCleanReq mshr miss latency
system.l2.ReadCleanReq_avg_mshr_miss_latency::total 74303.030303                       # average ReadCleanReq mshr miss latency
system.l2.ReadCleanReq_miss_latency::.switch_cpus.inst      8346000                       # number of ReadCleanReq miss cycles
system.l2.ReadCleanReq_miss_latency::total      8346000                       # number of ReadCleanReq miss cycles
system.l2.ReadCleanReq_miss_rate::.cpu.inst            1                       # miss rate for ReadCleanReq accesses
system.l2.ReadCleanReq_miss_rate::.switch_cpus.inst            1                       # miss rate for ReadCleanReq accesses
system.l2.ReadCleanReq_miss_rate::total             1                       # miss rate for ReadCleanReq accesses
system.l2.ReadCleanReq_misses::.cpu.inst            2                       # number of ReadCleanReq misses
system.l2.ReadCleanReq_misses::.switch_cpus.inst           99                       # number of ReadCleanReq misses
system.l2.ReadCleanReq_misses::total              101                       # number of ReadCleanReq misses
system.l2.ReadCleanReq_mshr_miss_latency::.switch_cpus.inst      7356000                       # number of ReadCleanReq MSHR miss cycles
system.l2.ReadCleanReq_mshr_miss_latency::total      7356000                       # number of ReadCleanReq MSHR miss cycles
system.l2.ReadCleanReq_mshr_miss_rate::.switch_cpus.inst            1                       # mshr miss rate for ReadCleanReq accesses
system.l2.ReadCleanReq_mshr_miss_rate::total     0.980198                       # mshr miss rate for ReadCleanReq accesses
system.l2.ReadCleanReq_mshr_misses::.switch_cpus.inst           99                       # number of ReadCleanReq MSHR misses
system.l2.ReadCleanReq_mshr_misses::total           99                       # number of ReadCleanReq MSHR misses
system.l2.ReadExReq_accesses::.cpu.data             2                       # number of ReadExReq accesses(hits+misses)
system.l2.ReadExReq_accesses::.switch_cpus.data        16154                       # number of ReadExReq accesses(hits+misses)
system.l2.ReadExReq_accesses::total             16156                       # number of ReadExReq accesses(hits+misses)
system.l2.ReadExReq_avg_miss_latency::.switch_cpus.data 81586.673224                       # average ReadExReq miss latency
system.l2.ReadExReq_avg_miss_latency::total 81566.617502                       # average ReadExReq miss latency
system.l2.ReadExReq_avg_mshr_miss_latency::.switch_cpus.data 71586.673224                       # average ReadExReq mshr miss latency
system.l2.ReadExReq_avg_mshr_miss_latency::total 71586.673224                       # average ReadExReq mshr miss latency
system.l2.ReadExReq_hits::.switch_cpus.data         8020                       # number of ReadExReq hits
system.l2.ReadExReq_hits::total                  8020                       # number of ReadExReq hits
system.l2.ReadExReq_miss_latency::.switch_cpus.data    663626000                       # number of ReadExReq miss cycles
system.l2.ReadExReq_miss_latency::total     663626000                       # number of ReadExReq miss cycles
system.l2.ReadExReq_miss_rate::.cpu.data            1                       # miss rate for ReadExReq accesses
system.l2.ReadExReq_miss_rate::.switch_cpus.data     0.503529                       # miss rate for ReadExReq accesses
system.l2.ReadExReq_miss_rate::total         0.503590                       # miss rate for ReadExReq accesses
system.l2.ReadExReq_misses::.cpu.data               2                       # number of ReadExReq misses
system.l2.ReadExReq_misses::.switch_cpus.data         8134                       # number of ReadExReq misses
system.l2.ReadExReq_misses::total                8136                       # number of ReadExReq misses
system.l2.ReadExReq_mshr_miss_latency::.switch_cpus.data    582286000                       # number of ReadExReq MSHR miss cycles
system.l2.ReadExReq_mshr_miss_latency::total    582286000                       # number of ReadExReq MSHR miss cycles
system.l2.ReadExReq_mshr_miss_rate::.switch_cpus.data     0.503529                       # mshr miss rate for ReadExReq accesses
system.l2.ReadExReq_mshr_miss_rate::total     0.503466                       # mshr miss rate for ReadExReq accesses
system.l2.ReadExReq_mshr_misses::.switch_cpus.data         8134                       # number of ReadExReq MSHR misses
system.l2.ReadExReq_mshr_misses::total           8134                       # number of ReadExReq MSHR misses
system.l2.ReadSharedReq_accesses::.cpu.data            2                       # number of ReadSharedReq accesses(hits+misses)
system.l2.ReadSharedReq_accesses::.switch_cpus.data           65                       # number of ReadSharedReq accesses(hits+misses)
system.l2.ReadSharedReq_accesses::total            67                       # number of ReadSharedReq accesses(hits+misses)
system.l2.ReadSharedReq_avg_miss_latency::.switch_cpus.data 90395.833333                       # average ReadSharedReq miss latency
system.l2.ReadSharedReq_avg_miss_latency::total 83442.307692                       # average ReadSharedReq miss latency
system.l2.ReadSharedReq_avg_mshr_miss_latency::.switch_cpus.data 80395.833333                       # average ReadSharedReq mshr miss latency
system.l2.ReadSharedReq_avg_mshr_miss_latency::total 80395.833333                       # average ReadSharedReq mshr miss latency
system.l2.ReadSharedReq_hits::.switch_cpus.data           41                       # number of ReadSharedReq hits
system.l2.ReadSharedReq_hits::total                41                       # number of ReadSharedReq hits
system.l2.ReadSharedReq_miss_latency::.switch_cpus.data      2169500                       # number of ReadSharedReq miss cycles
system.l2.ReadSharedReq_miss_latency::total      2169500                       # number of ReadSharedReq miss cycles
system.l2.ReadSharedReq_miss_rate::.cpu.data            1                       # miss rate for ReadSharedReq accesses
system.l2.ReadSharedReq_miss_rate::.switch_cpus.data     0.369231                       # miss rate for ReadSharedReq accesses
system.l2.ReadSharedReq_miss_rate::total     0.388060                       # miss rate for ReadSharedReq accesses
system.l2.ReadSharedReq_misses::.cpu.data            2                       # number of ReadSharedReq misses
system.l2.ReadSharedReq_misses::.switch_cpus.data           24                       # number of ReadSharedReq misses
system.l2.ReadSharedReq_misses::total              26                       # number of ReadSharedReq misses
system.l2.ReadSharedReq_mshr_miss_latency::.switch_cpus.data      1929500                       # number of ReadSharedReq MSHR miss cycles
system.l2.ReadSharedReq_mshr_miss_latency::total      1929500                       # number of ReadSharedReq MSHR miss cycles
system.l2.ReadSharedReq_mshr_miss_rate::.switch_cpus.data     0.369231                       # mshr miss rate for ReadSharedReq accesses
system.l2.ReadSharedReq_mshr_miss_rate::total     0.358209                       # mshr miss rate for ReadSharedReq accesses
system.l2.ReadSharedReq_mshr_misses::.switch_cpus.data           24                       # number of ReadSharedReq MSHR misses
system.l2.ReadSharedReq_mshr_misses::total           24                       # number of ReadSharedReq MSHR misses
system.l2.WritebackDirty_accesses::.writebacks        15937                       # number of WritebackDirty accesses(hits+misses)
system.l2.WritebackDirty_accesses::total        15937                       # number of WritebackDirty accesses(hits+misses)
system.l2.WritebackDirty_hits::.writebacks        15937                       # number of WritebackDirty hits
system.l2.WritebackDirty_hits::total            15937                       # number of WritebackDirty hits
system.l2.avg_blocked_cycles::no_mshrs            nan                       # average number of cycles each access was blocked
system.l2.avg_blocked_cycles::no_targets          nan                       # average number of cycles each access was blocked
system.l2.blocked::no_mshrs                         0                       # number of cycles access was blocked
system.l2.blocked::no_targets                       0                       # number of cycles access was blocked
system.l2.blocked_cycles::no_mshrs                  0                       # number of cycles access was blocked
system.l2.blocked_cycles::no_targets                0                       # number of cycles access was blocked
system.l2.demand_accesses::.cpu.inst                2                       # number of demand (read+write) accesses
system.l2.demand_accesses::.cpu.data                4                       # number of demand (read+write) accesses
system.l2.demand_accesses::.switch_cpus.inst           99                       # number of demand (read+write) accesses
system.l2.demand_accesses::.switch_cpus.data        16219                       # number of demand (read+write) accesses
system.l2.demand_accesses::total                16324                       # number of demand (read+write) accesses
system.l2.demand_avg_miss_latency::.switch_cpus.inst 84303.030303                       # average overall miss latency
system.l2.demand_avg_miss_latency::.switch_cpus.data 81612.588870                       # average overall miss latency
system.l2.demand_avg_miss_latency::total 81585.562144                       # average overall miss latency
system.l2.demand_avg_mshr_miss_latency::.switch_cpus.inst 74303.030303                       # average overall mshr miss latency
system.l2.demand_avg_mshr_miss_latency::.switch_cpus.data 71612.588870                       # average overall mshr miss latency
system.l2.demand_avg_mshr_miss_latency::total 71644.846797                       # average overall mshr miss latency
system.l2.demand_hits::.switch_cpus.data         8061                       # number of demand (read+write) hits
system.l2.demand_hits::total                     8061                       # number of demand (read+write) hits
system.l2.demand_miss_latency::.switch_cpus.inst      8346000                       # number of demand (read+write) miss cycles
system.l2.demand_miss_latency::.switch_cpus.data    665795500                       # number of demand (read+write) miss cycles
system.l2.demand_miss_latency::total        674141500                       # number of demand (read+write) miss cycles
system.l2.demand_miss_rate::.cpu.inst               1                       # miss rate for demand accesses
system.l2.demand_miss_rate::.cpu.data               1                       # miss rate for demand accesses
system.l2.demand_miss_rate::.switch_cpus.inst            1                       # miss rate for demand accesses
system.l2.demand_miss_rate::.switch_cpus.data     0.502990                       # miss rate for demand accesses
system.l2.demand_miss_rate::total            0.506187                       # miss rate for demand accesses
system.l2.demand_misses::.cpu.inst                  2                       # number of demand (read+write) misses
system.l2.demand_misses::.cpu.data                  4                       # number of demand (read+write) misses
system.l2.demand_misses::.switch_cpus.inst           99                       # number of demand (read+write) misses
system.l2.demand_misses::.switch_cpus.data         8158                       # number of demand (read+write) misses
system.l2.demand_misses::total                   8263                       # number of demand (read+write) misses
system.l2.demand_mshr_miss_latency::.switch_cpus.inst      7356000                       # number of demand (read+write) MSHR miss cycles
system.l2.demand_mshr_miss_latency::.switch_cpus.data    584215500                       # number of demand (read+write) MSHR miss cycles
system.l2.demand_mshr_miss_latency::total    591571500                       # number of demand (read+write) MSHR miss cycles
system.l2.demand_mshr_miss_rate::.switch_cpus.inst            1                       # mshr miss rate for demand accesses
system.l2.demand_mshr_miss_rate::.switch_cpus.data     0.502990                       # mshr miss rate for demand accesses
system.l2.demand_mshr_miss_rate::total       0.505820                       # mshr miss rate for demand accesses
system.l2.demand_mshr_misses::.switch_cpus.inst           99                       # number of demand (read+write) MSHR misses
system.l2.demand_mshr_misses::.switch_cpus.data         8158                       # number of demand (read+write) MSHR misses
system.l2.demand_mshr_misses::total              8257                       # number of demand (read+write) MSHR misses
system.l2.overall_accesses::.cpu.inst               2                       # number of overall (read+write) accesses
system.l2.overall_accesses::.cpu.data               4                       # number of overall (read+write) accesses
system.l2.overall_accesses::.switch_cpus.inst           99                       # number of overall (read+write) accesses
system.l2.overall_accesses::.switch_cpus.data        16219                       # number of overall (read+write) accesses
system.l2.overall_accesses::total               16324                       # number of overall (read+write) accesses
system.l2.overall_avg_miss_latency::.switch_cpus.inst 84303.030303                       # average overall miss latency
system.l2.overall_avg_miss_latency::.switch_cpus.data 81612.588870                       # average overall miss latency
system.l2.overall_avg_miss_latency::total 81585.562144                       # average overall miss latency
system.l2.overall_avg_mshr_miss_latency::.switch_cpus.inst 74303.030303                       # average overall mshr miss latency
system.l2.overall_avg_mshr_miss_latency::.switch_cpus.data 71612.588870                       # average overall mshr miss latency
system.l2.overall_avg_mshr_miss_latency::total 71644.846797                       # average overall mshr miss latency
system.l2.overall_hits::.switch_cpus.data         8061                       # number of overall hits
system.l2.overall_hits::total                    8061                       # number of overall hits
system.l2.overall_miss_latency::.switch_cpus.inst      8346000                       # number of overall miss cycles
system.l2.overall_miss_latency::.switch_cpus.data    665795500                       # number of overall miss cycles
system.l2.overall_miss_latency::total       674141500                       # number of overall miss cycles
system.l2.overall_miss_rate::.cpu.inst              1                       # miss rate for overall accesses
system.l2.overall_miss_rate::.cpu.data              1                       # miss rate for overall accesses
system.l2.overall_miss_rate::.switch_cpus.inst            1                       # miss rate for overall accesses
system.l2.overall_miss_rate::.switch_cpus.data     0.502990                       # miss rate for overall accesses
system.l2.overall_miss_rate::total           0.506187                       # miss rate for overall accesses
system.l2.overall_misses::.cpu.inst                 2                       # number of overall misses
system.l2.overall_misses::.cpu.data                 4                       # number of overall misses
system.l2.overall_misses::.switch_cpus.inst           99                       # number of overall misses
system.l2.overall_misses::.switch_cpus.data         8158                       # number of overall misses
system.l2.overall_misses::total                  8263                       # number of overall misses
system.l2.overall_mshr_miss_latency::.switch_cpus.inst      7356000                       # number of overall MSHR miss cycles
system.l2.overall_mshr_miss_latency::.switch_cpus.data    584215500                       # number of overall MSHR miss cycles
system.l2.overall_mshr_miss_latency::total    591571500                       # number of overall MSHR miss cycles
system.l2.overall_mshr_miss_rate::.switch_cpus.inst            1                       # mshr miss rate for overall accesses
system.l2.overall_mshr_miss_rate::.switch_cpus.data     0.502990                       # mshr miss rate for overall accesses
system.l2.overall_mshr_miss_rate::total      0.505820                       # mshr miss rate for overall accesses
system.l2.overall_mshr_misses::.switch_cpus.inst           99                       # number of overall MSHR misses
system.l2.overall_mshr_misses::.switch_cpus.data         8158                       # number of overall MSHR misses
system.l2.overall_mshr_misses::total             8257                       # number of overall MSHR misses
system.l2.pwrStateResidencyTicks::UNDEFINED 1622256068500                       # Cumulative time (in ticks) in various power states
system.l2.replacements                              0                       # number of replacements
system.l2.tags.age_task_id_blocks_1024::3          179                       # Occupied blocks per task id
system.l2.tags.age_task_id_blocks_1024::4         8135                       # Occupied blocks per task id
system.l2.tags.avg_refs                      3.818716                       # Average number of references to valid blocks.
system.l2.tags.data_accesses                   529226                       # Number of data accesses
system.l2.tags.occ_blocks::.writebacks      55.419430                       # Average occupied blocks per requestor
system.l2.tags.occ_blocks::.cpu.inst         2.000000                       # Average occupied blocks per requestor
system.l2.tags.occ_blocks::.cpu.data         3.999999                       # Average occupied blocks per requestor
system.l2.tags.occ_blocks::.switch_cpus.inst    96.978452                       # Average occupied blocks per requestor
system.l2.tags.occ_blocks::.switch_cpus.data  6081.581947                       # Average occupied blocks per requestor
system.l2.tags.occ_percent::.writebacks      0.001691                       # Average percentage of cache occupancy
system.l2.tags.occ_percent::.cpu.inst        0.000061                       # Average percentage of cache occupancy
system.l2.tags.occ_percent::.cpu.data        0.000122                       # Average percentage of cache occupancy
system.l2.tags.occ_percent::.switch_cpus.inst     0.002960                       # Average percentage of cache occupancy
system.l2.tags.occ_percent::.switch_cpus.data     0.185595                       # Average percentage of cache occupancy
system.l2.tags.occ_percent::total            0.190429                       # Average percentage of cache occupancy
system.l2.tags.occ_task_id_blocks::1024          8314                       # Occupied blocks per task id
system.l2.tags.occ_task_id_percent::1024     0.253723                       # Percentage of cache occupancy per task id
system.l2.tags.pwrStateResidencyTicks::UNDEFINED 1622256068500                       # Cumulative time (in ticks) in various power states
system.l2.tags.sampled_refs                      8506                       # Sample count of references to valid blocks.
system.l2.tags.tag_accesses                    529226                       # Number of tag accesses
system.l2.tags.tagsinuse                  6239.979828                       # Cycle average of tags in use
system.l2.tags.total_refs                       32482                       # Total number of references to valid blocks.
system.l2.tags.warmup_cycle              1599238435500                       # Cycle when the warmup percentage was hit.
system.mem_ctrls.avgBusLat                    5000.00                       # Average bus latency per DRAM burst
system.mem_ctrls.avgGap                     718496.85                       # Average gap between requests
system.mem_ctrls.avgMemAccLat                30331.75                       # Average memory access latency per DRAM burst
system.mem_ctrls.avgPriority_.switch_cpus.inst::samples        99.00                       # Average QoS priority value for accepted requests
system.mem_ctrls.avgPriority_.switch_cpus.data::samples      8158.00                       # Average QoS priority value for accepted requests
system.mem_ctrls.avgQLat                     11581.75                       # Average queueing delay per DRAM burst
system.mem_ctrls.avgRdBW                        22.96                       # Average DRAM read bandwidth in MiByte/s
system.mem_ctrls.avgRdBWSys                     22.96                       # Average system read bandwidth in MiByte/s
system.mem_ctrls.avgRdQLen                       1.02                       # Average read queue length when enqueuing
system.mem_ctrls.avgWrBW                         0.00                       # Average achieved write bandwidth in MiByte/s
system.mem_ctrls.avgWrBWSys                      0.00                       # Average system write bandwidth in MiByte/s
system.mem_ctrls.avgWrQLen                       0.00                       # Average write queue length when enqueuing
system.mem_ctrls.busUtil                         0.18                       # Data bus utilization in percentage
system.mem_ctrls.busUtilRead                     0.18                       # Data bus utilization in percentage for reads
system.mem_ctrls.busUtilWrite                    0.00                       # Data bus utilization in percentage for writes
system.mem_ctrls.bw_inst_read::.cpu.inst         5561                       # Instruction read bandwidth from this memory (bytes/s)
system.mem_ctrls.bw_inst_read::.switch_cpus.inst       275267                       # Instruction read bandwidth from this memory (bytes/s)
system.mem_ctrls.bw_inst_read::total           280828                       # Instruction read bandwidth from this memory (bytes/s)
system.mem_ctrls.bw_read::.cpu.inst              5561                       # Total read bandwidth from this memory (bytes/s)
system.mem_ctrls.bw_read::.cpu.data             11122                       # Total read bandwidth from this memory (bytes/s)
system.mem_ctrls.bw_read::.switch_cpus.inst       275267                       # Total read bandwidth from this memory (bytes/s)
system.mem_ctrls.bw_read::.switch_cpus.data     22683131                       # Total read bandwidth from this memory (bytes/s)
system.mem_ctrls.bw_read::total              22975081                       # Total read bandwidth from this memory (bytes/s)
system.mem_ctrls.bw_total::.cpu.inst             5561                       # Total bandwidth to/from this memory (bytes/s)
system.mem_ctrls.bw_total::.cpu.data            11122                       # Total bandwidth to/from this memory (bytes/s)
system.mem_ctrls.bw_total::.switch_cpus.inst       275267                       # Total bandwidth to/from this memory (bytes/s)
system.mem_ctrls.bw_total::.switch_cpus.data     22683131                       # Total bandwidth to/from this memory (bytes/s)
system.mem_ctrls.bw_total::total             22975081                       # Total bandwidth to/from this memory (bytes/s)
system.mem_ctrls.bytesPerActivate::samples          549                       # Bytes accessed per row activation
system.mem_ctrls.bytesPerActivate::mean    962.564663                       # Bytes accessed per row activation
system.mem_ctrls.bytesPerActivate::gmean   900.186012                       # Bytes accessed per row activation
system.mem_ctrls.bytesPerActivate::stdev   202.073797                       # Bytes accessed per row activation
system.mem_ctrls.bytesPerActivate::0-127           13      2.37%      2.37% # Bytes accessed per row activation
system.mem_ctrls.bytesPerActivate::128-255           11      2.00%      4.37% # Bytes accessed per row activation
system.mem_ctrls.bytesPerActivate::256-383            3      0.55%      4.92% # Bytes accessed per row activation
system.mem_ctrls.bytesPerActivate::384-511            4      0.73%      5.65% # Bytes accessed per row activation
system.mem_ctrls.bytesPerActivate::512-639            4      0.73%      6.38% # Bytes accessed per row activation
system.mem_ctrls.bytesPerActivate::768-895            8      1.46%      7.83% # Bytes accessed per row activation
system.mem_ctrls.bytesPerActivate::896-1023           55     10.02%     17.85% # Bytes accessed per row activation
system.mem_ctrls.bytesPerActivate::1024-1151          451     82.15%    100.00% # Bytes accessed per row activation
system.mem_ctrls.bytesPerActivate::total          549                       # Bytes accessed per row activation
system.mem_ctrls.bytesReadDRAM                 528448                       # Total number of bytes read from DRAM
system.mem_ctrls.bytesReadSys                  528448                       # Total read bytes from the system interface side
system.mem_ctrls.bytesReadWrQ                       0                       # Total number of bytes read from write queue
system.mem_ctrls.bytesWritten                       0                       # Total number of bytes written to DRAM
system.mem_ctrls.bytesWrittenSys                    0                       # Total written bytes from the system interface side
system.mem_ctrls.bytes_inst_read::.cpu.inst          128                       # Number of instructions bytes read from this memory
system.mem_ctrls.bytes_inst_read::.switch_cpus.inst         6336                       # Number of instructions bytes read from this memory
system.mem_ctrls.bytes_inst_read::total          6464                       # Number of instructions bytes read from this memory
system.mem_ctrls.bytes_read::.cpu.inst            128                       # Number of bytes read from this memory
system.mem_ctrls.bytes_read::.cpu.data            256                       # Number of bytes read from this memory
system.mem_ctrls.bytes_read::.switch_cpus.inst         6336                       # Number of bytes read from this memory
system.mem_ctrls.bytes_read::.switch_cpus.data       522112                       # Number of bytes read from this memory
system.mem_ctrls.bytes_read::total             528832                       # Number of bytes read from this memory
system.mem_ctrls.masterReadAccesses::.switch_cpus.inst           99                       # Per-master read serviced memory accesses
system.mem_ctrls.masterReadAccesses::.switch_cpus.data         8158                       # Per-master read serviced memory accesses
system.mem_ctrls.masterReadAvgLat::.switch_cpus.inst     33184.34                       # Per-master read average memory access latency
system.mem_ctrls.masterReadAvgLat::.switch_cpus.data     30297.13                       # Per-master read average memory access latency
system.mem_ctrls.masterReadBytes::.switch_cpus.inst         6336                       # Per-master bytes read from memory
system.mem_ctrls.masterReadBytes::.switch_cpus.data       522112                       # Per-master bytes read from memory
system.mem_ctrls.masterReadRate::.switch_cpus.inst 275267.220672359748                       # Per-master bytes read from memory rate (Bytes/sec)
system.mem_ctrls.masterReadRate::.switch_cpus.data 22683131.174193039536                       # Per-master bytes read from memory rate (Bytes/sec)
system.mem_ctrls.masterReadTotalLat::.switch_cpus.inst      3285250                       # Per-master read total memory access latency
system.mem_ctrls.masterReadTotalLat::.switch_cpus.data    247164000                       # Per-master read total memory access latency
system.mem_ctrls.mergedWrBursts                     0                       # Number of DRAM write bursts merged with an existing one
system.mem_ctrls.neitherReadNorWriteReqs            0                       # Number of requests that are neither read nor write
system.mem_ctrls.numRdRetry                         0                       # Number of times read queue was full causing retry
system.mem_ctrls.numReadWriteTurnArounds            0                       # Number of turnarounds from READ to WRITE
system.mem_ctrls.numStayReadState               16544                       # Number of times bus staying in READ state
system.mem_ctrls.numStayWriteState                  0                       # Number of times bus staying in WRITE state
system.mem_ctrls.numWrRetry                         0                       # Number of times write queue was full causing retry
system.mem_ctrls.numWriteReadTurnArounds            0                       # Number of turnarounds from WRITE to READ
system.mem_ctrls.num_reads::.cpu.inst               2                       # Number of read requests responded to by this memory
system.mem_ctrls.num_reads::.cpu.data               4                       # Number of read requests responded to by this memory
system.mem_ctrls.num_reads::.switch_cpus.inst           99                       # Number of read requests responded to by this memory
system.mem_ctrls.num_reads::.switch_cpus.data         8158                       # Number of read requests responded to by this memory
system.mem_ctrls.num_reads::total                8263                       # Number of read requests responded to by this memory
system.mem_ctrls.pageHitRate                    93.35                       # Row buffer hit rate, read and write combined
system.mem_ctrls.peakBW                      12800.00                       # Theoretical peak bandwidth in MiByte/s
system.mem_ctrls.perBankRdBursts::0               508                       # Per bank write bursts
system.mem_ctrls.perBankRdBursts::1               534                       # Per bank write bursts
system.mem_ctrls.perBankRdBursts::2               513                       # Per bank write bursts
system.mem_ctrls.perBankRdBursts::3               508                       # Per bank write bursts
system.mem_ctrls.perBankRdBursts::4               519                       # Per bank write bursts
system.mem_ctrls.perBankRdBursts::5               511                       # Per bank write bursts
system.mem_ctrls.perBankRdBursts::6               533                       # Per bank write bursts
system.mem_ctrls.perBankRdBursts::7               539                       # Per bank write bursts
system.mem_ctrls.perBankRdBursts::8               515                       # Per bank write bursts
system.mem_ctrls.perBankRdBursts::9               519                       # Per bank write bursts
system.mem_ctrls.perBankRdBursts::10              508                       # Per bank write bursts
system.mem_ctrls.perBankRdBursts::11              508                       # Per bank write bursts
system.mem_ctrls.perBankRdBursts::12              508                       # Per bank write bursts
system.mem_ctrls.perBankRdBursts::13              509                       # Per bank write bursts
system.mem_ctrls.perBankRdBursts::14              517                       # Per bank write bursts
system.mem_ctrls.perBankRdBursts::15              508                       # Per bank write bursts
system.mem_ctrls.perBankWrBursts::0                 0                       # Per bank write bursts
system.mem_ctrls.perBankWrBursts::1                 0                       # Per bank write bursts
system.mem_ctrls.perBankWrBursts::2                 0                       # Per bank write bursts
system.mem_ctrls.perBankWrBursts::3                 0                       # Per bank write bursts
system.mem_ctrls.perBankWrBursts::4                 0                       # Per bank write bursts
system.mem_ctrls.perBankWrBursts::5                 0                       # Per bank write bursts
system.mem_ctrls.perBankWrBursts::6                 0                       # Per bank write bursts
system.mem_ctrls.perBankWrBursts::7                 0                       # Per bank write bursts
system.mem_ctrls.perBankWrBursts::8                 0                       # Per bank write bursts
system.mem_ctrls.perBankWrBursts::9                 0                       # Per bank write bursts
system.mem_ctrls.perBankWrBursts::10                0                       # Per bank write bursts
system.mem_ctrls.perBankWrBursts::11                0                       # Per bank write bursts
system.mem_ctrls.perBankWrBursts::12                0                       # Per bank write bursts
system.mem_ctrls.perBankWrBursts::13                0                       # Per bank write bursts
system.mem_ctrls.perBankWrBursts::14                0                       # Per bank write bursts
system.mem_ctrls.perBankWrBursts::15                0                       # Per bank write bursts
[...]
system.switch_cpus.iq.fu_full::IntAlu          502122     12.51%     12.51% # attempts to use FU when none available
system.switch_cpus.iq.fu_full::IntMult              2      0.00%     12.51% # attempts to use FU when none available
system.switch_cpus.iq.fu_full::IntDiv               0      0.00%     12.51% # attempts to use FU when none available
system.switch_cpus.iq.fu_full::FloatAdd             0      0.00%     12.51% # attempts to use FU when none available
system.switch_cpus.iq.fu_full::FloatCmp             0      0.00%     12.51% # attempts to use FU when none available
system.switch_cpus.iq.fu_full::FloatCvt             0      0.00%     12.51% # attempts to use FU when none available
system.switch_cpus.iq.fu_full::FloatMult            0      0.00%     12.51% # attempts to use FU when none available
system.switch_cpus.iq.fu_full::FloatMultAcc            0      0.00%     12.51% # attempts to use FU when none available
system.switch_cpus.iq.fu_full::FloatDiv             0      0.00%     12.51% # attempts to use FU when none available
system.switch_cpus.iq.fu_full::FloatMisc            0      0.00%     12.51% # attempts to use FU when none available
system.switch_cpus.iq.fu_full::FloatSqrt            0      0.00%     12.51% # attempts to use FU when none available
system.switch_cpus.iq.fu_full::SimdAdd              0      0.00%     12.51% # attempts to use FU when none available
system.switch_cpus.iq.fu_full::SimdAddAcc            0      0.00%     12.51% # attempts to use FU when none available
system.switch_cpus.iq.fu_full::SimdAlu              0      0.00%     12.51% # attempts to use FU when none available
system.switch_cpus.iq.fu_full::SimdCmp              0      0.00%     12.51% # attempts to use FU when none available
system.switch_cpus.iq.fu_full::SimdCvt              0      0.00%     12.51% # attempts to use FU when none available
system.switch_cpus.iq.fu_full::SimdMisc             0      0.00%     12.51% # attempts to use FU when none available
system.switch_cpus.iq.fu_full::SimdMult             0      0.00%     12.51% # attempts to use FU when none available
system.switch_cpus.iq.fu_full::SimdMultAcc            0      0.00%     12.51% # attempts to use FU when none available
system.switch_cpus.iq.fu_full::SimdShift            0      0.00%     12.51% # attempts to use FU when none available
system.switch_cpus.iq.fu_full::SimdShiftAcc            0      0.00%     12.51% # attempts to use FU when none available
system.switch_cpus.iq.fu_full::SimdSqrt             0      0.00%     12.51% # attempts to use FU when none available
system.switch_cpus.iq.fu_full::SimdFloatAdd            0      0.00%     12.51% # attempts to use FU when none available
system.switch_cpus.iq.fu_full::SimdFloatAlu            0      0.00%     12.51% # attempts to use FU when none available
system.switch_cpus.iq.fu_full::SimdFloatCmp            0      0.00%     12.51% # attempts to use FU when none available
system.switch_cpus.iq.fu_full::SimdFloatCvt            0      0.00%     12.51% # attempts to use FU when none available
system.switch_cpus.iq.fu_full::SimdFloatDiv            0      0.00%     12.51% # attempts to use FU when none available
system.switch_cpus.iq.fu_full::SimdFloatMisc            0      0.00%     12.51% # attempts to use FU when none available
system.switch_cpus.iq.fu_full::SimdFloatMult            0      0.00%     12.51% # attempts to use FU when none available
system.switch_cpus.iq.fu_full::SimdFloatMultAcc            0      0.00%     12.51% # attempts to use FU when none available
system.switch_cpus.iq.fu_full::SimdFloatSqrt            0      0.00%     12.51% # attempts to use FU when none available
system.switch_cpus.iq.fu_full::SimdAes              0      0.00%     12.51% # attempts to use FU when none available
system.switch_cpus.iq.fu_full::SimdAesMix            0      0.00%     12.51% # attempts to use FU when none available
system.switch_cpus.iq.fu_full::SimdSha1Hash            0      0.00%     12.51% # attempts to use FU when none available
system.switch_cpus.iq.fu_full::SimdSha1Hash2            0      0.00%     12.51% # attempts to use FU when none available
system.switch_cpus.iq.fu_full::SimdSha256Hash            0      0.00%     12.51% # attempts to use FU when none available
system.switch_cpus.iq.fu_full::SimdSha256Hash2            0      0.00%     12.51% # attempts to use FU when none available
system.switch_cpus.iq.fu_full::SimdShaSigma2            0      0.00%     12.51% # attempts to use FU when none available
system.switch_cpus.iq.fu_full::SimdShaSigma3            0      0.00%     12.51% # attempts to use FU when none available
system.switch_cpus.iq.fu_full::MemRead        2406439     59.95%     72.46% # attempts to use FU when none available
system.switch_cpus.iq.fu_full::MemWrite       1105304     27.54%    100.00% # attempts to use FU when none available
system.switch_cpus.iq.fu_full::FloatMemRead            0      0.00%    100.00% # attempts to use FU when none available
system.switch_cpus.iq.fu_full::FloatMemWrite            0      0.00%    100.00% # attempts to use FU when none available
system.switch_cpus.iq.fu_full::IprAccess            0      0.00%    100.00% # attempts to use FU when none available
system.switch_cpus.iq.fu_full::InstPrefetch            0      0.00%    100.00% # attempts to use FU when none available
system.switch_cpus.iq.int_alu_accesses      103927187                       # Number of integer alu accesses
system.switch_cpus.iq.int_inst_queue_reads    249866754                       # Number of integer instruction queue reads
system.switch_cpus.iq.int_inst_queue_wakeup_accesses     99908626                       # Number of integer instruction queue wakeup accesses
system.switch_cpus.iq.int_inst_queue_writes     99936229                       # Number of integer instruction queue writes
system.switch_cpus.iq.iqInstsAdded           98411402                       # Number of instructions added to the IQ (excludes non-spec)
system.switch_cpus.iq.iqInstsIssued         100014004                       # Number of instructions issued
system.switch_cpus.iq.iqNonSpecInstsAdded      1606814                       # Number of non-speculative instructions added to the IQ
system.switch_cpus.iq.iqSquashedInstsExamined        18208                       # Number of squashed instructions iterated over during squash; mainly for profiling
system.switch_cpus.iq.iqSquashedInstsIssued           10                       # Number of squashed instructions issued
system.switch_cpus.iq.iqSquashedNonSpecRemoved           22                       # Number of squashed non-spec instructions that were removed
system.switch_cpus.iq.iqSquashedOperandsExamined        13781                       # Number of squashed operands that are examined and possibly removed from graph
system.switch_cpus.iq.issued_per_cycle::samples     46025949                       # Number of insts issued each cycle
system.switch_cpus.iq.issued_per_cycle::mean     2.172992                       # Number of insts issued each cycle
system.switch_cpus.iq.issued_per_cycle::stdev     2.453190                       # Number of insts issued each cycle
system.switch_cpus.iq.issued_per_cycle::underflows            0      0.00%      0.00% # Number of insts issued each cycle
system.switch_cpus.iq.issued_per_cycle::0     18724875     40.68%     40.68% # Number of insts issued each cycle
system.switch_cpus.iq.issued_per_cycle::1      6045876     13.14%     53.82% # Number of insts issued each cycle
system.switch_cpus.iq.issued_per_cycle::2      4438908      9.64%     63.46% # Number of insts issued each cycle
system.switch_cpus.iq.issued_per_cycle::3      3517521      7.64%     71.11% # Number of insts issued each cycle
system.switch_cpus.iq.issued_per_cycle::4      3126259      6.79%     77.90% # Number of insts issued each cycle
system.switch_cpus.iq.issued_per_cycle::5      3624871      7.88%     85.77% # Number of insts issued each cycle
system.switch_cpus.iq.issued_per_cycle::6      3130781      6.80%     92.58% # Number of insts issued each cycle
system.switch_cpus.iq.issued_per_cycle::7      2211192      4.80%     97.38% # Number of insts issued each cycle
system.switch_cpus.iq.issued_per_cycle::8      1205666      2.62%    100.00% # Number of insts issued each cycle
system.switch_cpus.iq.issued_per_cycle::overflows            0      0.00%    100.00% # Number of insts issued each cycle
system.switch_cpus.iq.issued_per_cycle::min_value            0                       # Number of insts issued each cycle
system.switch_cpus.iq.issued_per_cycle::max_value            8                       # Number of insts issued each cycle
system.switch_cpus.iq.issued_per_cycle::total     46025949                       # Number of insts issued each cycle
system.switch_cpus.iq.rate                   2.172553                       # Inst issue rate
system.switch_cpus.iq.vec_alu_accesses              0                       # Number of vector alu accesses
system.switch_cpus.iq.vec_inst_queue_reads            0                       # Number of vector instruction queue reads
system.switch_cpus.iq.vec_inst_queue_wakeup_accesses            0                       # Number of vector instruction queue wakeup accesses
system.switch_cpus.iq.vec_inst_queue_writes            0                       # Number of vector instruction queue writes
system.switch_cpus.itb.data_accesses                0                       # DTB accesses
system.switch_cpus.itb.data_acv                     0                       # DTB access violations
system.switch_cpus.itb.data_hits                    0                       # DTB hits
system.switch_cpus.itb.data_misses                  0                       # DTB misses
system.switch_cpus.itb.fetch_accesses        12791073                       # ITB accesses
system.switch_cpus.itb.fetch_acv                    0                       # ITB acv
system.switch_cpus.itb.fetch_hits            12790914                       # ITB hits
system.switch_cpus.itb.fetch_misses               159                       # ITB misses
system.switch_cpus.itb.pwrStateResidencyTicks::UNDEFINED 1622256068500                       # Cumulative time (in ticks) in various power states
system.switch_cpus.itb.read_accesses                0                       # DTB read accesses
system.switch_cpus.itb.read_acv                     0                       # DTB read access violations
system.switch_cpus.itb.read_hits                    0                       # DTB read hits
system.switch_cpus.itb.read_misses                  0                       # DTB read misses
system.switch_cpus.itb.write_accesses               0                       # DTB write accesses
system.switch_cpus.itb.write_acv                    0                       # DTB write access violations
system.switch_cpus.itb.write_hits                   0                       # DTB write hits
system.switch_cpus.itb.write_misses                 0                       # DTB write misses
system.switch_cpus.memDep0.conflictingLoads      2413555                       # Number of conflicting loads.
system.switch_cpus.memDep0.conflictingStores      3916344                       # Number of conflicting stores.
system.switch_cpus.memDep0.insertedLoads     22397027                       # Number of loads inserted to the mem dependence unit.
system.switch_cpus.memDep0.insertedStores     14195084                       # Number of stores inserted to the mem dependence unit.
system.switch_cpus.misc_regfile_reads         1807638                       # number of misc regfile reads
system.switch_cpus.misc_regfile_writes        1606790                       # number of misc regfile writes
system.switch_cpus.numCycles                 46035247                       # number of cpu cycles simulated
system.switch_cpus.numWorkItemsCompleted            0                       # number of work items this cpu completed
system.switch_cpus.numWorkItemsStarted              0                       # number of work items this cpu started
system.switch_cpus.pwrStateResidencyTicks::OFF  23017633500                       # Cumulative time (in ticks) in various power states
system.switch_cpus.rename.BlockCycles          258329                       # Number of cycles rename is blocking
system.switch_cpus.rename.CommittedMaps      70612634                       # Number of HB maps that are committed
system.switch_cpus.rename.IQFullEvents              5                       # Number of times rename has blocked due to IQ full
system.switch_cpus.rename.IdleCycles          8062385                       # Number of cycles rename is idle
system.switch_cpus.rename.LQFullEvents            128                       # Number of times rename has blocked due to LQ full
system.switch_cpus.rename.RenameLookups     135142345                       # Number of register rename lookups that rename has made
system.switch_cpus.rename.RenamedInsts      101980622                       # Number of instructions processed by rename
system.switch_cpus.rename.RenamedOperands     70625962                       # Number of destination operands rename has renamed
system.switch_cpus.rename.RunCycles          16501840                       # Number of cycles rename is running
system.switch_cpus.rename.SQFullEvents         105593                       # Number of times rename has blocked due to SQ full
system.switch_cpus.rename.SquashCycles            776                       # Number of cycles rename is squashing
system.switch_cpus.rename.UnblockCycles       1117033                       # Number of cycles rename is unblocking
system.switch_cpus.rename.UndoneMaps            13316                       # Number of HB maps that are undone due to squashing
system.switch_cpus.rename.fp_rename_lookups       100540                       # Number of floating rename lookups
system.switch_cpus.rename.int_rename_lookups    134840957                       # Number of integer rename lookups
system.switch_cpus.rename.serializeStallCycles     20085585                       # count of cycles rename stalled for serializing inst
system.switch_cpus.rename.serializingInsts      1004268                       # count of serializing insts renamed
system.switch_cpus.rename.skidInsts           4297071                       # count of insts added to the skid buffer
system.switch_cpus.rename.tempSerializingInsts       803414                       # count of temporary serializing insts renamed
system.switch_cpus.rob.rob_reads            140146003                       # The number of ROB reads
system.switch_cpus.rob.rob_writes           203952056                       # The number of ROB writes
system.switch_cpus.timesIdled                      74                       # Number of times that the entire CPU went into an idle state and unscheduled itself
system.tol2bus.pkt_count_system.cpu.icache.mem_side::system.l2.cpu_side          202                       # Packet count per connected master and slave (bytes)
system.tol2bus.pkt_count_system.cpu.dcache.mem_side::system.l2.cpu_side        48922                       # Packet count per connected master and slave (bytes)
system.tol2bus.pkt_count::total                 49124                       # Packet count per connected master and slave (bytes)
system.tol2bus.pkt_size_system.cpu.icache.mem_side::system.l2.cpu_side         6464                       # Cumulative packet size per connected master and slave (bytes)
system.tol2bus.pkt_size_system.cpu.dcache.mem_side::system.l2.cpu_side      2058240                       # Cumulative packet size per connected master and slave (bytes)
system.tol2bus.pkt_size::total                2064704                       # Cumulative packet size per connected master and slave (bytes)
system.tol2bus.pwrStateResidencyTicks::UNDEFINED 1622256068500                       # Cumulative time (in ticks) in various power states
system.tol2bus.reqLayer0.occupancy           32206500                       # Layer occupancy (ticks)
system.tol2bus.reqLayer0.utilization              0.1                       # Layer utilization (%)
system.tol2bus.respLayer0.occupancy            148500                       # Layer occupancy (ticks)
system.tol2bus.respLayer0.utilization             0.0                       # Layer utilization (%)
system.tol2bus.respLayer1.occupancy          24456000                       # Layer occupancy (ticks)
system.tol2bus.respLayer1.utilization             0.1                       # Layer utilization (%)
system.tol2bus.snoopTraffic                         0                       # Total snoop traffic (bytes)
system.tol2bus.snoop_fanout::samples            16579                       # Request fanout histogram
system.tol2bus.snoop_fanout::mean                   0                       # Request fanout histogram
system.tol2bus.snoop_fanout::stdev                  0                       # Request fanout histogram
system.tol2bus.snoop_fanout::underflows             0      0.00%      0.00% # Request fanout histogram
system.tol2bus.snoop_fanout::0                  16579    100.00%    100.00% # Request fanout histogram
system.tol2bus.snoop_fanout::1                      0      0.00%    100.00% # Request fanout histogram
system.tol2bus.snoop_fanout::2                      0      0.00%    100.00% # Request fanout histogram
system.tol2bus.snoop_fanout::overflows              0      0.00%    100.00% # Request fanout histogram
system.tol2bus.snoop_fanout::min_value              0                       # Request fanout histogram
system.tol2bus.snoop_fanout::max_value              0                       # Request fanout histogram
system.tol2bus.snoop_fanout::total              16579                       # Request fanout histogram
system.tol2bus.snoop_filter.hit_multi_requests            0                       # Number of requests hitting in the snoop filter with multiple (>1) holders of the requested data.
system.tol2bus.snoop_filter.hit_multi_snoops            0                       # Number of snoops hitting in the snoop filter with multiple (>1) holders of the requested data.
system.tol2bus.snoop_filter.hit_single_requests        15966                       # Number of requests hitting in the snoop filter with a single holder of the requested data.
system.tol2bus.snoop_filter.hit_single_snoops            0                       # Number of snoops hitting in the snoop filter with a single holder of the requested data.
system.tol2bus.snoop_filter.tot_requests        32545                       # Total number of requests made to the snoop filter.
system.tol2bus.snoop_filter.tot_snoops              0                       # Total number of snoops made to the snoop filter.
system.tol2bus.snoops                               0                       # Total snoops (count)
system.tol2bus.trans_dist::ReadResp               168                       # Transaction distribution
system.tol2bus.trans_dist::WritebackDirty        15937                       # Transaction distribution
system.tol2bus.trans_dist::CleanEvict              29                       # Transaction distribution
system.tol2bus.trans_dist::ReadExReq            16156                       # Transaction distribution
system.tol2bus.trans_dist::ReadExResp           16156                       # Transaction distribution
system.tol2bus.trans_dist::ReadCleanReq           101                       # Transaction distribution
system.tol2bus.trans_dist::ReadSharedReq           67                       # Transaction distribution
system.tol2bus.trans_dist::InvalidateReq          255                       # Transaction distribution
system.tol2bus.trans_dist::InvalidateResp          255                       # Transaction distribution
system.voltage_domain.voltage                       1                       # Voltage in Volts

---------- End Simulation Statistics   ----------
