
******************************directory****************************
spec_dir: /home/cuihongwei/experiment/mcpat-gem5-master/spec2006/benchspec/CPU2006
run_dir:  /home/cuihongwei/experiment/mcpat-gem5-master/spec2006/benchspec/CPU2006/464.h264ref/run/run_base_ref_amd64.0001
gem5_dir: /home/cuihongwei/experiment/experiment-gem5/raw-gem5
gem5_output_dir: /home/cuihongwei/experiment/experiment-gem5/raw-gem5/output/464.h264ref/alpha-OLD-464.h264ref-input1-190330-220756
benchmark_output:/home/cuihongwei/experiment/experiment-gem5/raw-gem5/output/464.h264ref/alpha-OLD-464.h264ref-input1-190330-220756
checkpoint_dir:/home/cuihongwei/experiment/experiment-gem5/pubs-gem5/output/alpha-464.h264ref-checkpoint-input1

******************************benchmark****************************
target:     464.h264ref
executable: h264ref
args:       -d foreman_ref_encoder_baseline.cfg
input:      
output:     /home/cuihongwei/experiment/experiment-gem5/raw-gem5/output/464.h264ref/alpha-OLD-464.h264ref-input1-190330-220756/foreman_ref_baseline_encodelog.out
errout:     /home/cuihongwei/experiment/experiment-gem5/raw-gem5/output/464.h264ref/alpha-OLD-464.h264ref-input1-190330-220756/foreman_ref_baseline_encodelog.err

******************************gem5****************************
arch:       /home/cuihongwei/experiment/experiment-gem5/raw-gem5/build/ALPHA/gem5.opt
config:     /home/cuihongwei/experiment/experiment-gem5/raw-gem5/configs/example/se.py
args:       --num-cpus=1 --mem-size=8GB --caches --l1d_size=32kB --l1d_assoc=8 --l1i_size=32kB --l1i_assoc=8 --l2cache --l2_size=2MB --l2_assoc=16 --at-instruction --checkpoint-restore=5000000000 --maxinsts=100000000 --cpu-type=DerivO3CPU
debugFlag:  --debug-flags=ShowRunning

******************************simulation****************************
start time:(year-mon-day hour-minute-second)19-03-30 22-07-56
gem5 Simulator System.  http://gem5.org
gem5 is copyrighted software; use the --copyright option for details.

gem5 compiled Mar 30 2019 20:24:53
gem5 started Mar 30 2019 22:07:56
gem5 executing on mprc-R730, pid 42066
command line: /home/cuihongwei/experiment/experiment-gem5/raw-gem5/build/ALPHA/gem5.opt --outdir=/home/cuihongwei/experiment/experiment-gem5/raw-gem5/output/464.h264ref/alpha-OLD-464.h264ref-input1-190330-220756 --debug-flags=ShowRunning /home/cuihongwei/experiment/experiment-gem5/raw-gem5/configs/example/se.py --num-cpus=1 --mem-size=8GB --caches --l1d_size=32kB --l1d_assoc=8 --l1i_size=32kB --l1i_assoc=8 --l2cache --l2_size=2MB --l2_assoc=16 --at-instruction --checkpoint-restore=5000000000 --maxinsts=100000000 --cpu-type=DerivO3CPU --checkpoint-dir=/home/cuihongwei/experiment/experiment-gem5/pubs-gem5/output/alpha-464.h264ref-checkpoint-input1 --cmd=/home/cuihongwei/experiment/mcpat-gem5-master/spec2006/benchspec/CPU2006/464.h264ref/run/build_peak_alpha.0001/h264ref '--options=-d foreman_ref_encoder_baseline.cfg' --output=/home/cuihongwei/experiment/experiment-gem5/raw-gem5/output/464.h264ref/alpha-OLD-464.h264ref-input1-190330-220756/foreman_ref_baseline_encodelog.out --input= --errout=/home/cuihongwei/experiment/experiment-gem5/raw-gem5/output/464.h264ref/alpha-OLD-464.h264ref-input1-190330-220756/foreman_ref_baseline_encodelog.err

Global frequency set at 1000000000000 ticks per second
Switch at curTick count:10000
Switched CPUS @ tick 1393878218000
switching cpus
**** REAL SIMULATION ****
1393878218500: system.switch_cpus: Raw Gem5 Running in Cycle:               0, Inst:               0
1393930306500: system.switch_cpus: Raw Gem5 Running in Cycle:          100000, Inst:          255631
1393980306500: system.switch_cpus: Raw Gem5 Running in Cycle:          200000, Inst:          527052
1394030306500: system.switch_cpus: Raw Gem5 Running in Cycle:          300000, Inst:          806269
1394080306500: system.switch_cpus: Raw Gem5 Running in Cycle:          400000, Inst:         1086307
1394130306500: system.switch_cpus: Raw Gem5 Running in Cycle:          500000, Inst:         1366068
1394180306500: system.switch_cpus: Raw Gem5 Running in Cycle:          600000, Inst:         1648614
1394230306500: system.switch_cpus: Raw Gem5 Running in Cycle:          700000, Inst:         1929264
1394280618000: system.switch_cpus: Raw Gem5 Running in Cycle:          800000, Inst:         2183011
1394330887500: system.switch_cpus: Raw Gem5 Running in Cycle:          900000, Inst:         2402849
1394386520500: system.switch_cpus: Raw Gem5 Running in Cycle:         1000000, Inst:         2566802
1394442494500: system.switch_cpus: Raw Gem5 Running in Cycle:         1100000, Inst:         2719160
1394492494500: system.switch_cpus: Raw Gem5 Running in Cycle:         1200000, Inst:         2996982
1394542494500: system.switch_cpus: Raw Gem5 Running in Cycle:         1300000, Inst:         3282349
1394592494500: system.switch_cpus: Raw Gem5 Running in Cycle:         1400000, Inst:         3556644
1394642494500: system.switch_cpus: Raw Gem5 Running in Cycle:         1500000, Inst:         3844654
1394692494500: system.switch_cpus: Raw Gem5 Running in Cycle:         1600000, Inst:         4129683
1394742494500: system.switch_cpus: Raw Gem5 Running in Cycle:         1700000, Inst:         4416286
1394792494500: system.switch_cpus: Raw Gem5 Running in Cycle:         1800000, Inst:         4706428
1394842494500: system.switch_cpus: Raw Gem5 Running in Cycle:         1900000, Inst:         4995711
1394892494500: system.switch_cpus: Raw Gem5 Running in Cycle:         2000000, Inst:         5286063
1394942494500: system.switch_cpus: Raw Gem5 Running in Cycle:         2100000, Inst:         5512883
1394992494500: system.switch_cpus: Raw Gem5 Running in Cycle:         2200000, Inst:         5696206
1395044816500: system.switch_cpus: Raw Gem5 Running in Cycle:         2300000, Inst:         5819001
1395094816500: system.switch_cpus: Raw Gem5 Running in Cycle:         2400000, Inst:         5984001
1395146023500: system.switch_cpus: Raw Gem5 Running in Cycle:         2500000, Inst:         6127783
1395196023500: system.switch_cpus: Raw Gem5 Running in Cycle:         2600000, Inst:         6297022
1395246023500: system.switch_cpus: Raw Gem5 Running in Cycle:         2700000, Inst:         6456201
1395296456500: system.switch_cpus: Raw Gem5 Running in Cycle:         2800000, Inst:         6621129
1395346456500: system.switch_cpus: Raw Gem5 Running in Cycle:         2900000, Inst:         6783903
1395398220000: system.switch_cpus: Raw Gem5 Running in Cycle:         3000000, Inst:         6946419
1395458390000: system.switch_cpus: Raw Gem5 Running in Cycle:         3100000, Inst:         7100143
1395509483500: system.switch_cpus: Raw Gem5 Running in Cycle:         3200000, Inst:         7246348
1395559483500: system.switch_cpus: Raw Gem5 Running in Cycle:         3300000, Inst:         7405512
1395609483500: system.switch_cpus: Raw Gem5 Running in Cycle:         3400000, Inst:         7578864
1395659486000: system.switch_cpus: Raw Gem5 Running in Cycle:         3500000, Inst:         7722692
1395709486000: system.switch_cpus: Raw Gem5 Running in Cycle:         3600000, Inst:         7906910
1395760219500: system.switch_cpus: Raw Gem5 Running in Cycle:         3700000, Inst:         8082660
1395810222000: system.switch_cpus: Raw Gem5 Running in Cycle:         3800000, Inst:         8242322
1395860223500: system.switch_cpus: Raw Gem5 Running in Cycle:         3900000, Inst:         8415384
1395911625500: system.switch_cpus: Raw Gem5 Running in Cycle:         4000000, Inst:         8578628
1395961627000: system.switch_cpus: Raw Gem5 Running in Cycle:         4100000, Inst:         8744453
1396011627000: system.switch_cpus: Raw Gem5 Running in Cycle:         4200000, Inst:         8907081
1396061627000: system.switch_cpus: Raw Gem5 Running in Cycle:         4300000, Inst:         9094985
1396111630000: system.switch_cpus: Raw Gem5 Running in Cycle:         4400000, Inst:         9258555
1396162402000: system.switch_cpus: Raw Gem5 Running in Cycle:         4500000, Inst:         9415806
1396212405500: system.switch_cpus: Raw Gem5 Running in Cycle:         4600000, Inst:         9581405
1396262405500: system.switch_cpus: Raw Gem5 Running in Cycle:         4700000, Inst:         9760610
1396312405500: system.switch_cpus: Raw Gem5 Running in Cycle:         4800000, Inst:         9923729
1396362411000: system.switch_cpus: Raw Gem5 Running in Cycle:         4900000, Inst:        10107179
1396414263500: system.switch_cpus: Raw Gem5 Running in Cycle:         5000000, Inst:        10271691
1396465422500: system.switch_cpus: Raw Gem5 Running in Cycle:         5100000, Inst:        10434223
1396515426000: system.switch_cpus: Raw Gem5 Running in Cycle:         5200000, Inst:        10597589
1396565429000: system.switch_cpus: Raw Gem5 Running in Cycle:         5300000, Inst:        10771631
1396615429000: system.switch_cpus: Raw Gem5 Running in Cycle:         5400000, Inst:        10941743
1396668562000: system.switch_cpus: Raw Gem5 Running in Cycle:         5500000, Inst:        11108837
1396729759000: system.switch_cpus: Raw Gem5 Running in Cycle:         5600000, Inst:        11210935
1396788906000: system.switch_cpus: Raw Gem5 Running in Cycle:         5700000, Inst:        11317945
1396839915000: system.switch_cpus: Raw Gem5 Running in Cycle:         5800000, Inst:        11433088
1396889926000: system.switch_cpus: Raw Gem5 Running in Cycle:         5900000, Inst:        11561715
1396941581000: system.switch_cpus: Raw Gem5 Running in Cycle:         6000000, Inst:        11684887
1397005088000: system.switch_cpus: Raw Gem5 Running in Cycle:         6100000, Inst:        11844477
1397062176000: system.switch_cpus: Raw Gem5 Running in Cycle:         6200000, Inst:        11999883
1397112176000: system.switch_cpus: Raw Gem5 Running in Cycle:         6300000, Inst:        12225775
1397162176000: system.switch_cpus: Raw Gem5 Running in Cycle:         6400000, Inst:        12443243
1397212176000: system.switch_cpus: Raw Gem5 Running in Cycle:         6500000, Inst:        12652625
1397262307000: system.switch_cpus: Raw Gem5 Running in Cycle:         6600000, Inst:        12848221
1397312331500: system.switch_cpus: Raw Gem5 Running in Cycle:         6700000, Inst:        13012288
1397362332000: system.switch_cpus: Raw Gem5 Running in Cycle:         6800000, Inst:        13230528
1397412332000: system.switch_cpus: Raw Gem5 Running in Cycle:         6900000, Inst:        13459425
1397462332000: system.switch_cpus: Raw Gem5 Running in Cycle:         7000000, Inst:        13673918
1397512332000: system.switch_cpus: Raw Gem5 Running in Cycle:         7100000, Inst:        13890101
1397562423500: system.switch_cpus: Raw Gem5 Running in Cycle:         7200000, Inst:        14081900
1397612441500: system.switch_cpus: Raw Gem5 Running in Cycle:         7300000, Inst:        14270879
1397662441500: system.switch_cpus: Raw Gem5 Running in Cycle:         7400000, Inst:        14502034
1397712441500: system.switch_cpus: Raw Gem5 Running in Cycle:         7500000, Inst:        14723350
1397762441500: system.switch_cpus: Raw Gem5 Running in Cycle:         7600000, Inst:        14939720
1397812452000: system.switch_cpus: Raw Gem5 Running in Cycle:         7700000, Inst:        15135500
1397862469500: system.switch_cpus: Raw Gem5 Running in Cycle:         7800000, Inst:        15322337
1397912470000: system.switch_cpus: Raw Gem5 Running in Cycle:         7900000, Inst:        15549755
1397962470000: system.switch_cpus: Raw Gem5 Running in Cycle:         8000000, Inst:        15781794
1398012470000: system.switch_cpus: Raw Gem5 Running in Cycle:         8100000, Inst:        15989146
1398062470000: system.switch_cpus: Raw Gem5 Running in Cycle:         8200000, Inst:        16201150
1398122525500: system.switch_cpus: Raw Gem5 Running in Cycle:         8300000, Inst:        16376615
1398172525500: system.switch_cpus: Raw Gem5 Running in Cycle:         8400000, Inst:        16709190
1398222525500: system.switch_cpus: Raw Gem5 Running in Cycle:         8500000, Inst:        17057321
1398272525500: system.switch_cpus: Raw Gem5 Running in Cycle:         8600000, Inst:        17404295
1398322525500: system.switch_cpus: Raw Gem5 Running in Cycle:         8700000, Inst:        17769345
1398372525500: system.switch_cpus: Raw Gem5 Running in Cycle:         8800000, Inst:        18133994
1398422525500: system.switch_cpus: Raw Gem5 Running in Cycle:         8900000, Inst:        18503651
1398473196500: system.switch_cpus: Raw Gem5 Running in Cycle:         9000000, Inst:        18862437
1398523196500: system.switch_cpus: Raw Gem5 Running in Cycle:         9100000, Inst:        19228956
1398573196500: system.switch_cpus: Raw Gem5 Running in Cycle:         9200000, Inst:        19580119
1398623196500: system.switch_cpus: Raw Gem5 Running in Cycle:         9300000, Inst:        19928831
1398673196500: system.switch_cpus: Raw Gem5 Running in Cycle:         9400000, Inst:        20266098
1398723224000: system.switch_cpus: Raw Gem5 Running in Cycle:         9500000, Inst:        20535849
1398773237000: system.switch_cpus: Raw Gem5 Running in Cycle:         9600000, Inst:        20734475
1398823237000: system.switch_cpus: Raw Gem5 Running in Cycle:         9700000, Inst:        21083072
1398873237000: system.switch_cpus: Raw Gem5 Running in Cycle:         9800000, Inst:        21441570
1398923237000: system.switch_cpus: Raw Gem5 Running in Cycle:         9900000, Inst:        21807651
1398973237000: system.switch_cpus: Raw Gem5 Running in Cycle:        10000000, Inst:        22178457
1399023237000: system.switch_cpus: Raw Gem5 Running in Cycle:        10100000, Inst:        22547435
1399073237000: system.switch_cpus: Raw Gem5 Running in Cycle:        10200000, Inst:        22920201
1399123237000: system.switch_cpus: Raw Gem5 Running in Cycle:        10300000, Inst:        23281888
1399173237000: system.switch_cpus: Raw Gem5 Running in Cycle:        10400000, Inst:        23647371
1399223237000: system.switch_cpus: Raw Gem5 Running in Cycle:        10500000, Inst:        24000126
1399273237000: system.switch_cpus: Raw Gem5 Running in Cycle:        10600000, Inst:        24355529
1399323237000: system.switch_cpus: Raw Gem5 Running in Cycle:        10700000, Inst:        24717849
1399373237000: system.switch_cpus: Raw Gem5 Running in Cycle:        10800000, Inst:        24919097
1399423237000: system.switch_cpus: Raw Gem5 Running in Cycle:        10900000, Inst:        25175908
1399473237000: system.switch_cpus: Raw Gem5 Running in Cycle:        11000000, Inst:        25530699
1399523237000: system.switch_cpus: Raw Gem5 Running in Cycle:        11100000, Inst:        25891219
1399573237000: system.switch_cpus: Raw Gem5 Running in Cycle:        11200000, Inst:        26254152
1399623237000: system.switch_cpus: Raw Gem5 Running in Cycle:        11300000, Inst:        26625228
1399673237000: system.switch_cpus: Raw Gem5 Running in Cycle:        11400000, Inst:        27002596
1399723237000: system.switch_cpus: Raw Gem5 Running in Cycle:        11500000, Inst:        27375197
1399773237000: system.switch_cpus: Raw Gem5 Running in Cycle:        11600000, Inst:        27738099
1399823237000: system.switch_cpus: Raw Gem5 Running in Cycle:        11700000, Inst:        28102278
1399873237000: system.switch_cpus: Raw Gem5 Running in Cycle:        11800000, Inst:        28445658
1399923237000: system.switch_cpus: Raw Gem5 Running in Cycle:        11900000, Inst:        28800337
1399973237000: system.switch_cpus: Raw Gem5 Running in Cycle:        12000000, Inst:        29168793
1400023237000: system.switch_cpus: Raw Gem5 Running in Cycle:        12100000, Inst:        29313021
1400073241500: system.switch_cpus: Raw Gem5 Running in Cycle:        12200000, Inst:        29484711
1400123244500: system.switch_cpus: Raw Gem5 Running in Cycle:        12300000, Inst:        29660836
1400173244500: system.switch_cpus: Raw Gem5 Running in Cycle:        12400000, Inst:        29837448
1400223244500: system.switch_cpus: Raw Gem5 Running in Cycle:        12500000, Inst:        30009137
1400273244500: system.switch_cpus: Raw Gem5 Running in Cycle:        12600000, Inst:        30184353
1400323244500: system.switch_cpus: Raw Gem5 Running in Cycle:        12700000, Inst:        30362266
1400373247500: system.switch_cpus: Raw Gem5 Running in Cycle:        12800000, Inst:        30540610
1400423284500: system.switch_cpus: Raw Gem5 Running in Cycle:        12900000, Inst:        30708677
1400473285500: system.switch_cpus: Raw Gem5 Running in Cycle:        13000000, Inst:        30891100
1400523285500: system.switch_cpus: Raw Gem5 Running in Cycle:        13100000, Inst:        31077329
1400573285500: system.switch_cpus: Raw Gem5 Running in Cycle:        13200000, Inst:        31269698
1400623285500: system.switch_cpus: Raw Gem5 Running in Cycle:        13300000, Inst:        31467259
1400673287500: system.switch_cpus: Raw Gem5 Running in Cycle:        13400000, Inst:        31640692
1400723287500: system.switch_cpus: Raw Gem5 Running in Cycle:        13500000, Inst:        31821903
1400773290000: system.switch_cpus: Raw Gem5 Running in Cycle:        13600000, Inst:        32003881
1400823290000: system.switch_cpus: Raw Gem5 Running in Cycle:        13700000, Inst:        32193874
1400873290000: system.switch_cpus: Raw Gem5 Running in Cycle:        13800000, Inst:        32387121
1400923290000: system.switch_cpus: Raw Gem5 Running in Cycle:        13900000, Inst:        32577661
1400973301500: system.switch_cpus: Raw Gem5 Running in Cycle:        14000000, Inst:        32746969
1401023301500: system.switch_cpus: Raw Gem5 Running in Cycle:        14100000, Inst:        32927083
1401073307500: system.switch_cpus: Raw Gem5 Running in Cycle:        14200000, Inst:        33108319
1401123311500: system.switch_cpus: Raw Gem5 Running in Cycle:        14300000, Inst:        33294407
1401173311500: system.switch_cpus: Raw Gem5 Running in Cycle:        14400000, Inst:        33490993
1401223320000: system.switch_cpus: Raw Gem5 Running in Cycle:        14500000, Inst:        33669384
1401273325500: system.switch_cpus: Raw Gem5 Running in Cycle:        14600000, Inst:        33840679
1401323329500: system.switch_cpus: Raw Gem5 Running in Cycle:        14700000, Inst:        34029759
1401373342500: system.switch_cpus: Raw Gem5 Running in Cycle:        14800000, Inst:        34219727
1401423342500: system.switch_cpus: Raw Gem5 Running in Cycle:        14900000, Inst:        34422475
1401473415000: system.switch_cpus: Raw Gem5 Running in Cycle:        15000000, Inst:        34541526
1401523427000: system.switch_cpus: Raw Gem5 Running in Cycle:        15100000, Inst:        34665189
1401573449500: system.switch_cpus: Raw Gem5 Running in Cycle:        15200000, Inst:        34798147
1401623455000: system.switch_cpus: Raw Gem5 Running in Cycle:        15300000, Inst:        34931014
1401674476000: system.switch_cpus: Raw Gem5 Running in Cycle:        15400000, Inst:        35064771
1401724574500: system.switch_cpus: Raw Gem5 Running in Cycle:        15500000, Inst:        35209064
1401776011000: system.switch_cpus: Raw Gem5 Running in Cycle:        15600000, Inst:        35347377
1401826011000: system.switch_cpus: Raw Gem5 Running in Cycle:        15700000, Inst:        35571188
1401876011000: system.switch_cpus: Raw Gem5 Running in Cycle:        15800000, Inst:        35793617
1401926011000: system.switch_cpus: Raw Gem5 Running in Cycle:        15900000, Inst:        35994580
1401976011000: system.switch_cpus: Raw Gem5 Running in Cycle:        16000000, Inst:        36193631
1402026024000: system.switch_cpus: Raw Gem5 Running in Cycle:        16100000, Inst:        36367763
1402076047000: system.switch_cpus: Raw Gem5 Running in Cycle:        16200000, Inst:        36530810
1402126047500: system.switch_cpus: Raw Gem5 Running in Cycle:        16300000, Inst:        36748115
1402176047500: system.switch_cpus: Raw Gem5 Running in Cycle:        16400000, Inst:        36976630
1402226047500: system.switch_cpus: Raw Gem5 Running in Cycle:        16500000, Inst:        37188699
1402276047500: system.switch_cpus: Raw Gem5 Running in Cycle:        16600000, Inst:        37394974
1402326053000: system.switch_cpus: Raw Gem5 Running in Cycle:        16700000, Inst:        37590200
1402376071500: system.switch_cpus: Raw Gem5 Running in Cycle:        16800000, Inst:        37755096
1402426076500: system.switch_cpus: Raw Gem5 Running in Cycle:        16900000, Inst:        37952667
1402476076500: system.switch_cpus: Raw Gem5 Running in Cycle:        17000000, Inst:        38183866
1402526076500: system.switch_cpus: Raw Gem5 Running in Cycle:        17100000, Inst:        38397803
1402576076500: system.switch_cpus: Raw Gem5 Running in Cycle:        17200000, Inst:        38611883
1402626082000: system.switch_cpus: Raw Gem5 Running in Cycle:        17300000, Inst:        38814579
1402676102500: system.switch_cpus: Raw Gem5 Running in Cycle:        17400000, Inst:        38983205
1402726108000: system.switch_cpus: Raw Gem5 Running in Cycle:        17500000, Inst:        39168737
1402776108000: system.switch_cpus: Raw Gem5 Running in Cycle:        17600000, Inst:        39401190
1402826108000: system.switch_cpus: Raw Gem5 Running in Cycle:        17700000, Inst:        39614276
1402876108000: system.switch_cpus: Raw Gem5 Running in Cycle:        17800000, Inst:        39823454
1402926112500: system.switch_cpus: Raw Gem5 Running in Cycle:        17900000, Inst:        40036648
1402980705000: system.switch_cpus: Raw Gem5 Running in Cycle:        18000000, Inst:        40150419
1403030705000: system.switch_cpus: Raw Gem5 Running in Cycle:        18100000, Inst:        40248771
1403080705000: system.switch_cpus: Raw Gem5 Running in Cycle:        18200000, Inst:        40346885
1403132205500: system.switch_cpus: Raw Gem5 Running in Cycle:        18300000, Inst:        40433736
1403182205500: system.switch_cpus: Raw Gem5 Running in Cycle:        18400000, Inst:        40521408
1403232205500: system.switch_cpus: Raw Gem5 Running in Cycle:        18500000, Inst:        40610606
1403282205500: system.switch_cpus: Raw Gem5 Running in Cycle:        18600000, Inst:        40695686
1403332205500: system.switch_cpus: Raw Gem5 Running in Cycle:        18700000, Inst:        40783080
1403382205500: system.switch_cpus: Raw Gem5 Running in Cycle:        18800000, Inst:        40879465
1403432205500: system.switch_cpus: Raw Gem5 Running in Cycle:        18900000, Inst:        40972817
1403482205500: system.switch_cpus: Raw Gem5 Running in Cycle:        19000000, Inst:        41063524
1403532205500: system.switch_cpus: Raw Gem5 Running in Cycle:        19100000, Inst:        41154545
1403582205500: system.switch_cpus: Raw Gem5 Running in Cycle:        19200000, Inst:        41256932
1403632205500: system.switch_cpus: Raw Gem5 Running in Cycle:        19300000, Inst:        41358653
1403682205500: system.switch_cpus: Raw Gem5 Running in Cycle:        19400000, Inst:        41463280
1403732205500: system.switch_cpus: Raw Gem5 Running in Cycle:        19500000, Inst:        41548681
1403782205500: system.switch_cpus: Raw Gem5 Running in Cycle:        19600000, Inst:        41639175
1403832205500: system.switch_cpus: Raw Gem5 Running in Cycle:        19700000, Inst:        41732665
1403882205500: system.switch_cpus: Raw Gem5 Running in Cycle:        19800000, Inst:        41829111
1403932205500: system.switch_cpus: Raw Gem5 Running in Cycle:        19900000, Inst:        41915875
1403982205500: system.switch_cpus: Raw Gem5 Running in Cycle:        20000000, Inst:        42017357
1404032205500: system.switch_cpus: Raw Gem5 Running in Cycle:        20100000, Inst:        42108084
1404082205500: system.switch_cpus: Raw Gem5 Running in Cycle:        20200000, Inst:        42197497
1404132205500: system.switch_cpus: Raw Gem5 Running in Cycle:        20300000, Inst:        42292031
1404182205500: system.switch_cpus: Raw Gem5 Running in Cycle:        20400000, Inst:        42385539
1404232205500: system.switch_cpus: Raw Gem5 Running in Cycle:        20500000, Inst:        42475362
1404282205500: system.switch_cpus: Raw Gem5 Running in Cycle:        20600000, Inst:        42568101
1404332919000: system.switch_cpus: Raw Gem5 Running in Cycle:        20700000, Inst:        42657430
1404382919000: system.switch_cpus: Raw Gem5 Running in Cycle:        20800000, Inst:        42748818
1404432919000: system.switch_cpus: Raw Gem5 Running in Cycle:        20900000, Inst:        42834259
1404482919000: system.switch_cpus: Raw Gem5 Running in Cycle:        21000000, Inst:        42927963
1404532919000: system.switch_cpus: Raw Gem5 Running in Cycle:        21100000, Inst:        43015852
1404582919000: system.switch_cpus: Raw Gem5 Running in Cycle:        21200000, Inst:        43105292
1404632919000: system.switch_cpus: Raw Gem5 Running in Cycle:        21300000, Inst:        43202044
1404682919000: system.switch_cpus: Raw Gem5 Running in Cycle:        21400000, Inst:        43295506
1404732919000: system.switch_cpus: Raw Gem5 Running in Cycle:        21500000, Inst:        43397587
1404782919000: system.switch_cpus: Raw Gem5 Running in Cycle:        21600000, Inst:        43491157
1404832919000: system.switch_cpus: Raw Gem5 Running in Cycle:        21700000, Inst:        43578896
1404882919000: system.switch_cpus: Raw Gem5 Running in Cycle:        21800000, Inst:        43665279
1404932919000: system.switch_cpus: Raw Gem5 Running in Cycle:        21900000, Inst:        43755483
1404982919000: system.switch_cpus: Raw Gem5 Running in Cycle:        22000000, Inst:        43846127
1405032919000: system.switch_cpus: Raw Gem5 Running in Cycle:        22100000, Inst:        43937304
1405082919000: system.switch_cpus: Raw Gem5 Running in Cycle:        22200000, Inst:        44025266
1405132919000: system.switch_cpus: Raw Gem5 Running in Cycle:        22300000, Inst:        44117891
1405182919000: system.switch_cpus: Raw Gem5 Running in Cycle:        22400000, Inst:        44207480
1405232919000: system.switch_cpus: Raw Gem5 Running in Cycle:        22500000, Inst:        44297153
1405282919000: system.switch_cpus: Raw Gem5 Running in Cycle:        22600000, Inst:        44383372
1405332919000: system.switch_cpus: Raw Gem5 Running in Cycle:        22700000, Inst:        44474955
1405382919000: system.switch_cpus: Raw Gem5 Running in Cycle:        22800000, Inst:        44565010
1405432919000: system.switch_cpus: Raw Gem5 Running in Cycle:        22900000, Inst:        44659148
1405482919000: system.switch_cpus: Raw Gem5 Running in Cycle:        23000000, Inst:        44756562
1405532919000: system.switch_cpus: Raw Gem5 Running in Cycle:        23100000, Inst:        44860315
1405582919000: system.switch_cpus: Raw Gem5 Running in Cycle:        23200000, Inst:        44946110
1405632919000: system.switch_cpus: Raw Gem5 Running in Cycle:        23300000, Inst:        45038049
1405682919000: system.switch_cpus: Raw Gem5 Running in Cycle:        23400000, Inst:        45125696
1405732919000: system.switch_cpus: Raw Gem5 Running in Cycle:        23500000, Inst:        45218132
1405782919000: system.switch_cpus: Raw Gem5 Running in Cycle:        23600000, Inst:        45307374
1405832919000: system.switch_cpus: Raw Gem5 Running in Cycle:        23700000, Inst:        45394289
1405882919000: system.switch_cpus: Raw Gem5 Running in Cycle:        23800000, Inst:        45483957
1405932919000: system.switch_cpus: Raw Gem5 Running in Cycle:        23900000, Inst:        45571901
1405982919000: system.switch_cpus: Raw Gem5 Running in Cycle:        24000000, Inst:        45661779
1406032919000: system.switch_cpus: Raw Gem5 Running in Cycle:        24100000, Inst:        45751663
1406082919000: system.switch_cpus: Raw Gem5 Running in Cycle:        24200000, Inst:        45844091
1406132919000: system.switch_cpus: Raw Gem5 Running in Cycle:        24300000, Inst:        45944607
1406182919000: system.switch_cpus: Raw Gem5 Running in Cycle:        24400000, Inst:        46045742
1406232919000: system.switch_cpus: Raw Gem5 Running in Cycle:        24500000, Inst:        46142926
1406282919000: system.switch_cpus: Raw Gem5 Running in Cycle:        24600000, Inst:        46230187
1406332919000: system.switch_cpus: Raw Gem5 Running in Cycle:        24700000, Inst:        46315780
1406382919000: system.switch_cpus: Raw Gem5 Running in Cycle:        24800000, Inst:        46407057
1406432919000: system.switch_cpus: Raw Gem5 Running in Cycle:        24900000, Inst:        46497242
1406482919000: system.switch_cpus: Raw Gem5 Running in Cycle:        25000000, Inst:        46591696
1406532919000: system.switch_cpus: Raw Gem5 Running in Cycle:        25100000, Inst:        46681448
1406582919000: system.switch_cpus: Raw Gem5 Running in Cycle:        25200000, Inst:        46774055
1406632919000: system.switch_cpus: Raw Gem5 Running in Cycle:        25300000, Inst:        46860112
1406682919000: system.switch_cpus: Raw Gem5 Running in Cycle:        25400000, Inst:        46950564
1406732919000: system.switch_cpus: Raw Gem5 Running in Cycle:        25500000, Inst:        47045444
1406782919000: system.switch_cpus: Raw Gem5 Running in Cycle:        25600000, Inst:        47137589
1406832919000: system.switch_cpus: Raw Gem5 Running in Cycle:        25700000, Inst:        47228028
1406882919000: system.switch_cpus: Raw Gem5 Running in Cycle:        25800000, Inst:        47325903
1406932919000: system.switch_cpus: Raw Gem5 Running in Cycle:        25900000, Inst:        47419938
1406982919000: system.switch_cpus: Raw Gem5 Running in Cycle:        26000000, Inst:        47513143
1407032919000: system.switch_cpus: Raw Gem5 Running in Cycle:        26100000, Inst:        47602534
1407082919000: system.switch_cpus: Raw Gem5 Running in Cycle:        26200000, Inst:        47690009
1407132919000: system.switch_cpus: Raw Gem5 Running in Cycle:        26300000, Inst:        47780499
1407182919000: system.switch_cpus: Raw Gem5 Running in Cycle:        26400000, Inst:        47869867
1407232919000: system.switch_cpus: Raw Gem5 Running in Cycle:        26500000, Inst:        47963967
1407282919000: system.switch_cpus: Raw Gem5 Running in Cycle:        26600000, Inst:        48051096
1407332919000: system.switch_cpus: Raw Gem5 Running in Cycle:        26700000, Inst:        48140970
1407382919000: system.switch_cpus: Raw Gem5 Running in Cycle:        26800000, Inst:        48228557
1407432919000: system.switch_cpus: Raw Gem5 Running in Cycle:        26900000, Inst:        48318206
1407482919000: system.switch_cpus: Raw Gem5 Running in Cycle:        27000000, Inst:        48414416
1407532919000: system.switch_cpus: Raw Gem5 Running in Cycle:        27100000, Inst:        48510771
1407582919000: system.switch_cpus: Raw Gem5 Running in Cycle:        27200000, Inst:        48603755
1407632919000: system.switch_cpus: Raw Gem5 Running in Cycle:        27300000, Inst:        48705527
1407682919000: system.switch_cpus: Raw Gem5 Running in Cycle:        27400000, Inst:        48802215
1407732919000: system.switch_cpus: Raw Gem5 Running in Cycle:        27500000, Inst:        48896201
1407782919000: system.switch_cpus: Raw Gem5 Running in Cycle:        27600000, Inst:        48983455
1407832919000: system.switch_cpus: Raw Gem5 Running in Cycle:        27700000, Inst:        49071097
1407882919000: system.switch_cpus: Raw Gem5 Running in Cycle:        27800000, Inst:        49162839
1407932919000: system.switch_cpus: Raw Gem5 Running in Cycle:        27900000, Inst:        49251523
1407982919000: system.switch_cpus: Raw Gem5 Running in Cycle:        28000000, Inst:        49345470
1408032919000: system.switch_cpus: Raw Gem5 Running in Cycle:        28100000, Inst:        49433064
1408082919000: system.switch_cpus: Raw Gem5 Running in Cycle:        28200000, Inst:        49525525
1408132919000: system.switch_cpus: Raw Gem5 Running in Cycle:        28300000, Inst:        49617765
1408182919000: system.switch_cpus: Raw Gem5 Running in Cycle:        28400000, Inst:        49723911
1408232919000: system.switch_cpus: Raw Gem5 Running in Cycle:        28500000, Inst:        49821541
1408282919000: system.switch_cpus: Raw Gem5 Running in Cycle:        28600000, Inst:        49927449
1408332919000: system.switch_cpus: Raw Gem5 Running in Cycle:        28700000, Inst:        50030253
1408382919000: system.switch_cpus: Raw Gem5 Running in Cycle:        28800000, Inst:        50116795
1408432919000: system.switch_cpus: Raw Gem5 Running in Cycle:        28900000, Inst:        50204824
1408482919000: system.switch_cpus: Raw Gem5 Running in Cycle:        29000000, Inst:        50295406
1408532919000: system.switch_cpus: Raw Gem5 Running in Cycle:        29100000, Inst:        50383671
1408582919000: system.switch_cpus: Raw Gem5 Running in Cycle:        29200000, Inst:        50475878
1408632919000: system.switch_cpus: Raw Gem5 Running in Cycle:        29300000, Inst:        50567269
1408682919000: system.switch_cpus: Raw Gem5 Running in Cycle:        29400000, Inst:        50659434
1408732919000: system.switch_cpus: Raw Gem5 Running in Cycle:        29500000, Inst:        50752488
1408782919000: system.switch_cpus: Raw Gem5 Running in Cycle:        29600000, Inst:        50858023
1408832919000: system.switch_cpus: Raw Gem5 Running in Cycle:        29700000, Inst:        50951977
1408884058500: system.switch_cpus: Raw Gem5 Running in Cycle:        29800000, Inst:        51134971
1408934058500: system.switch_cpus: Raw Gem5 Running in Cycle:        29900000, Inst:        51433407
1408986685500: system.switch_cpus: Raw Gem5 Running in Cycle:        30000000, Inst:        51654023
1409039494500: system.switch_cpus: Raw Gem5 Running in Cycle:        30100000, Inst:        51867138
1409094421000: system.switch_cpus: Raw Gem5 Running in Cycle:        30200000, Inst:        52243532
1409144421000: system.switch_cpus: Raw Gem5 Running in Cycle:        30300000, Inst:        52620509
1409194421000: system.switch_cpus: Raw Gem5 Running in Cycle:        30400000, Inst:        53007257
1409244421000: system.switch_cpus: Raw Gem5 Running in Cycle:        30500000, Inst:        53399889
1409294421000: system.switch_cpus: Raw Gem5 Running in Cycle:        30600000, Inst:        53785193
1409344421000: system.switch_cpus: Raw Gem5 Running in Cycle:        30700000, Inst:        54179824
1409394421000: system.switch_cpus: Raw Gem5 Running in Cycle:        30800000, Inst:        54571823
1409444421000: system.switch_cpus: Raw Gem5 Running in Cycle:        30900000, Inst:        54957803
1409494421000: system.switch_cpus: Raw Gem5 Running in Cycle:        31000000, Inst:        55350125
1409544633000: system.switch_cpus: Raw Gem5 Running in Cycle:        31100000, Inst:        55567635
1409594633000: system.switch_cpus: Raw Gem5 Running in Cycle:        31200000, Inst:        55685679
1409644633000: system.switch_cpus: Raw Gem5 Running in Cycle:        31300000, Inst:        55776786
1409694633000: system.switch_cpus: Raw Gem5 Running in Cycle:        31400000, Inst:        55893469
1409744633000: system.switch_cpus: Raw Gem5 Running in Cycle:        31500000, Inst:        56013671
1409794633000: system.switch_cpus: Raw Gem5 Running in Cycle:        31600000, Inst:        56100603
1409844633000: system.switch_cpus: Raw Gem5 Running in Cycle:        31700000, Inst:        56219057
1409894633000: system.switch_cpus: Raw Gem5 Running in Cycle:        31800000, Inst:        56337902
1409944633000: system.switch_cpus: Raw Gem5 Running in Cycle:        31900000, Inst:        56424436
1409994633000: system.switch_cpus: Raw Gem5 Running in Cycle:        32000000, Inst:        56543598
1410044633000: system.switch_cpus: Raw Gem5 Running in Cycle:        32100000, Inst:        56660028
1410094633000: system.switch_cpus: Raw Gem5 Running in Cycle:        32200000, Inst:        56750502
1410144633000: system.switch_cpus: Raw Gem5 Running in Cycle:        32300000, Inst:        56870162
1410194633000: system.switch_cpus: Raw Gem5 Running in Cycle:        32400000, Inst:        56969988
1410244633000: system.switch_cpus: Raw Gem5 Running in Cycle:        32500000, Inst:        57076850
1410294633000: system.switch_cpus: Raw Gem5 Running in Cycle:        32600000, Inst:        57196165
1410344633000: system.switch_cpus: Raw Gem5 Running in Cycle:        32700000, Inst:        57282483
1410394633000: system.switch_cpus: Raw Gem5 Running in Cycle:        32800000, Inst:        57401358
1410444633000: system.switch_cpus: Raw Gem5 Running in Cycle:        32900000, Inst:        57519416
1410494633000: system.switch_cpus: Raw Gem5 Running in Cycle:        33000000, Inst:        57605936
1410544633000: system.switch_cpus: Raw Gem5 Running in Cycle:        33100000, Inst:        57724467
1410594633000: system.switch_cpus: Raw Gem5 Running in Cycle:        33200000, Inst:        57843159
1410644633000: system.switch_cpus: Raw Gem5 Running in Cycle:        33300000, Inst:        57930712
1410694633000: system.switch_cpus: Raw Gem5 Running in Cycle:        33400000, Inst:        58049582
1410744633000: system.switch_cpus: Raw Gem5 Running in Cycle:        33500000, Inst:        58160506
1410794633000: system.switch_cpus: Raw Gem5 Running in Cycle:        33600000, Inst:        58255975
1410844633000: system.switch_cpus: Raw Gem5 Running in Cycle:        33700000, Inst:        58375714
1410894633000: system.switch_cpus: Raw Gem5 Running in Cycle:        33800000, Inst:        58470888
1410944633000: system.switch_cpus: Raw Gem5 Running in Cycle:        33900000, Inst:        58583069
1410994633000: system.switch_cpus: Raw Gem5 Running in Cycle:        34000000, Inst:        58701100
1411044633000: system.switch_cpus: Raw Gem5 Running in Cycle:        34100000, Inst:        58787278
1411094633000: system.switch_cpus: Raw Gem5 Running in Cycle:        34200000, Inst:        58905678
1411144633000: system.switch_cpus: Raw Gem5 Running in Cycle:        34300000, Inst:        59024501
1411194633000: system.switch_cpus: Raw Gem5 Running in Cycle:        34400000, Inst:        59112202
1411244633000: system.switch_cpus: Raw Gem5 Running in Cycle:        34500000, Inst:        59230678
1411294633000: system.switch_cpus: Raw Gem5 Running in Cycle:        34600000, Inst:        59349269
1411344633000: system.switch_cpus: Raw Gem5 Running in Cycle:        34700000, Inst:        59436278
1411394633000: system.switch_cpus: Raw Gem5 Running in Cycle:        34800000, Inst:        59555503
1411444633000: system.switch_cpus: Raw Gem5 Running in Cycle:        34900000, Inst:        59661679
1411494633000: system.switch_cpus: Raw Gem5 Running in Cycle:        35000000, Inst:        59761645
1411544633000: system.switch_cpus: Raw Gem5 Running in Cycle:        35100000, Inst:        59879517
1411594633000: system.switch_cpus: Raw Gem5 Running in Cycle:        35200000, Inst:        59970145
1411644633000: system.switch_cpus: Raw Gem5 Running in Cycle:        35300000, Inst:        60085258
1411694633000: system.switch_cpus: Raw Gem5 Running in Cycle:        35400000, Inst:        60203182
1411744633000: system.switch_cpus: Raw Gem5 Running in Cycle:        35500000, Inst:        60288648
1411794633000: system.switch_cpus: Raw Gem5 Running in Cycle:        35600000, Inst:        60406515
1411844633000: system.switch_cpus: Raw Gem5 Running in Cycle:        35700000, Inst:        60524417
1411894633000: system.switch_cpus: Raw Gem5 Running in Cycle:        35800000, Inst:        60610036
1411944633000: system.switch_cpus: Raw Gem5 Running in Cycle:        35900000, Inst:        60728112
1411994633000: system.switch_cpus: Raw Gem5 Running in Cycle:        36000000, Inst:        60846391
1412044633000: system.switch_cpus: Raw Gem5 Running in Cycle:        36100000, Inst:        60932567
1412094633000: system.switch_cpus: Raw Gem5 Running in Cycle:        36200000, Inst:        61050184
1412144633000: system.switch_cpus: Raw Gem5 Running in Cycle:        36300000, Inst:        61157588
1412194633000: system.switch_cpus: Raw Gem5 Running in Cycle:        36400000, Inst:        61253163
1412244633000: system.switch_cpus: Raw Gem5 Running in Cycle:        36500000, Inst:        61370938
1412294633000: system.switch_cpus: Raw Gem5 Running in Cycle:        36600000, Inst:        61464996
1412344633000: system.switch_cpus: Raw Gem5 Running in Cycle:        36700000, Inst:        61574146
1412394633000: system.switch_cpus: Raw Gem5 Running in Cycle:        36800000, Inst:        61691392
1412444633000: system.switch_cpus: Raw Gem5 Running in Cycle:        36900000, Inst:        61776611
1412494633000: system.switch_cpus: Raw Gem5 Running in Cycle:        37000000, Inst:        61893906
1412544633000: system.switch_cpus: Raw Gem5 Running in Cycle:        37100000, Inst:        62010879
1412594633000: system.switch_cpus: Raw Gem5 Running in Cycle:        37200000, Inst:        62097623
1412644633000: system.switch_cpus: Raw Gem5 Running in Cycle:        37300000, Inst:        62214574
1412694633000: system.switch_cpus: Raw Gem5 Running in Cycle:        37400000, Inst:        62332263
1412744633000: system.switch_cpus: Raw Gem5 Running in Cycle:        37500000, Inst:        62419644
1412795620500: system.switch_cpus: Raw Gem5 Running in Cycle:        37600000, Inst:        62649154
1412845620500: system.switch_cpus: Raw Gem5 Running in Cycle:        37700000, Inst:        62875007
1412895620500: system.switch_cpus: Raw Gem5 Running in Cycle:        37800000, Inst:        63100891
1412945620500: system.switch_cpus: Raw Gem5 Running in Cycle:        37900000, Inst:        63326344
1412995620500: system.switch_cpus: Raw Gem5 Running in Cycle:        38000000, Inst:        63552213
1413045620500: system.switch_cpus: Raw Gem5 Running in Cycle:        38100000, Inst:        63778076
1413095620500: system.switch_cpus: Raw Gem5 Running in Cycle:        38200000, Inst:        64003852
1413145620500: system.switch_cpus: Raw Gem5 Running in Cycle:        38300000, Inst:        64229359
1413195620500: system.switch_cpus: Raw Gem5 Running in Cycle:        38400000, Inst:        64455149
1413245620500: system.switch_cpus: Raw Gem5 Running in Cycle:        38500000, Inst:        64680942
1413295620500: system.switch_cpus: Raw Gem5 Running in Cycle:        38600000, Inst:        64906793
1413345620500: system.switch_cpus: Raw Gem5 Running in Cycle:        38700000, Inst:        65132305
1413395620500: system.switch_cpus: Raw Gem5 Running in Cycle:        38800000, Inst:        65358025
1413445620500: system.switch_cpus: Raw Gem5 Running in Cycle:        38900000, Inst:        65583765
1413495620500: system.switch_cpus: Raw Gem5 Running in Cycle:        39000000, Inst:        65809524
1413545620500: system.switch_cpus: Raw Gem5 Running in Cycle:        39100000, Inst:        66035086
1413595620500: system.switch_cpus: Raw Gem5 Running in Cycle:        39200000, Inst:        66260933
1413645620500: system.switch_cpus: Raw Gem5 Running in Cycle:        39300000, Inst:        66486695
1413695620500: system.switch_cpus: Raw Gem5 Running in Cycle:        39400000, Inst:        66712519
1413745620500: system.switch_cpus: Raw Gem5 Running in Cycle:        39500000, Inst:        66938079
1413795620500: system.switch_cpus: Raw Gem5 Running in Cycle:        39600000, Inst:        67163858
1413845620500: system.switch_cpus: Raw Gem5 Running in Cycle:        39700000, Inst:        67389725
1413895620500: system.switch_cpus: Raw Gem5 Running in Cycle:        39800000, Inst:        67615267
1413945620500: system.switch_cpus: Raw Gem5 Running in Cycle:        39900000, Inst:        67841047
1413995620500: system.switch_cpus: Raw Gem5 Running in Cycle:        40000000, Inst:        68066871
1414045620500: system.switch_cpus: Raw Gem5 Running in Cycle:        40100000, Inst:        68292633
1414095620500: system.switch_cpus: Raw Gem5 Running in Cycle:        40200000, Inst:        68518151
1414145620500: system.switch_cpus: Raw Gem5 Running in Cycle:        40300000, Inst:        68744017
1414195620500: system.switch_cpus: Raw Gem5 Running in Cycle:        40400000, Inst:        68969888
1414245620500: system.switch_cpus: Raw Gem5 Running in Cycle:        40500000, Inst:        69195661
1414295620500: system.switch_cpus: Raw Gem5 Running in Cycle:        40600000, Inst:        69421198
1414345620500: system.switch_cpus: Raw Gem5 Running in Cycle:        40700000, Inst:        69647082
1414395620500: system.switch_cpus: Raw Gem5 Running in Cycle:        40800000, Inst:        69872843
1414445620500: system.switch_cpus: Raw Gem5 Running in Cycle:        40900000, Inst:        70098691
1414495620500: system.switch_cpus: Raw Gem5 Running in Cycle:        41000000, Inst:        70324194
1414545620500: system.switch_cpus: Raw Gem5 Running in Cycle:        41100000, Inst:        70549993
1414595620500: system.switch_cpus: Raw Gem5 Running in Cycle:        41200000, Inst:        70775838
1414645620500: system.switch_cpus: Raw Gem5 Running in Cycle:        41300000, Inst:        71001639
1414695620500: system.switch_cpus: Raw Gem5 Running in Cycle:        41400000, Inst:        71227176
1414745620500: system.switch_cpus: Raw Gem5 Running in Cycle:        41500000, Inst:        71453030
1414795620500: system.switch_cpus: Raw Gem5 Running in Cycle:        41600000, Inst:        71678827
1414845620500: system.switch_cpus: Raw Gem5 Running in Cycle:        41700000, Inst:        71904648
1414895620500: system.switch_cpus: Raw Gem5 Running in Cycle:        41800000, Inst:        72130176
1414945620500: system.switch_cpus: Raw Gem5 Running in Cycle:        41900000, Inst:        72355973
1414995620500: system.switch_cpus: Raw Gem5 Running in Cycle:        42000000, Inst:        72581832
1415045620500: system.switch_cpus: Raw Gem5 Running in Cycle:        42100000, Inst:        72807399
1415095620500: system.switch_cpus: Raw Gem5 Running in Cycle:        42200000, Inst:        73033168
1415145620500: system.switch_cpus: Raw Gem5 Running in Cycle:        42300000, Inst:        73259021
1415195620500: system.switch_cpus: Raw Gem5 Running in Cycle:        42400000, Inst:        73484887
1415245620500: system.switch_cpus: Raw Gem5 Running in Cycle:        42500000, Inst:        73710314
1415295620500: system.switch_cpus: Raw Gem5 Running in Cycle:        42600000, Inst:        73936167
1415345620500: system.switch_cpus: Raw Gem5 Running in Cycle:        42700000, Inst:        74162008
1415395620500: system.switch_cpus: Raw Gem5 Running in Cycle:        42800000, Inst:        74387788
1415445620500: system.switch_cpus: Raw Gem5 Running in Cycle:        42900000, Inst:        74613259
1415495620500: system.switch_cpus: Raw Gem5 Running in Cycle:        43000000, Inst:        74839118
1415545620500: system.switch_cpus: Raw Gem5 Running in Cycle:        43100000, Inst:        75064899
1415595620500: system.switch_cpus: Raw Gem5 Running in Cycle:        43200000, Inst:        75290770
1415645620500: system.switch_cpus: Raw Gem5 Running in Cycle:        43300000, Inst:        75516221
1415695620500: system.switch_cpus: Raw Gem5 Running in Cycle:        43400000, Inst:        75741881
1415745620500: system.switch_cpus: Raw Gem5 Running in Cycle:        43500000, Inst:        75967740
1415795620500: system.switch_cpus: Raw Gem5 Running in Cycle:        43600000, Inst:        76193592
1415845620500: system.switch_cpus: Raw Gem5 Running in Cycle:        43700000, Inst:        76419076
1415895620500: system.switch_cpus: Raw Gem5 Running in Cycle:        43800000, Inst:        76644929
1415945620500: system.switch_cpus: Raw Gem5 Running in Cycle:        43900000, Inst:        76870796
1415995620500: system.switch_cpus: Raw Gem5 Running in Cycle:        44000000, Inst:        77096585
1416045620500: system.switch_cpus: Raw Gem5 Running in Cycle:        44100000, Inst:        77322126
1416095620500: system.switch_cpus: Raw Gem5 Running in Cycle:        44200000, Inst:        77547942
1416145620500: system.switch_cpus: Raw Gem5 Running in Cycle:        44300000, Inst:        77773731
1416195620500: system.switch_cpus: Raw Gem5 Running in Cycle:        44400000, Inst:        77999235
1416245620500: system.switch_cpus: Raw Gem5 Running in Cycle:        44500000, Inst:        78225088
1416295620500: system.switch_cpus: Raw Gem5 Running in Cycle:        44600000, Inst:        78450765
1416345620500: system.switch_cpus: Raw Gem5 Running in Cycle:        44700000, Inst:        78676628
1416395620500: system.switch_cpus: Raw Gem5 Running in Cycle:        44800000, Inst:        78902156
1416445620500: system.switch_cpus: Raw Gem5 Running in Cycle:        44900000, Inst:        79127953
1416495620500: system.switch_cpus: Raw Gem5 Running in Cycle:        45000000, Inst:        79353812
1416545620500: system.switch_cpus: Raw Gem5 Running in Cycle:        45100000, Inst:        79579557
1416595620500: system.switch_cpus: Raw Gem5 Running in Cycle:        45200000, Inst:        79805110
1416645620500: system.switch_cpus: Raw Gem5 Running in Cycle:        45300000, Inst:        80030983
1416695620500: system.switch_cpus: Raw Gem5 Running in Cycle:        45400000, Inst:        80256770
1416745620500: system.switch_cpus: Raw Gem5 Running in Cycle:        45500000, Inst:        80482618
1416795620500: system.switch_cpus: Raw Gem5 Running in Cycle:        45600000, Inst:        80708147
1416847192000: system.switch_cpus: Raw Gem5 Running in Cycle:        45700000, Inst:        80906886
1416897192000: system.switch_cpus: Raw Gem5 Running in Cycle:        45800000, Inst:        81102956
1416947192000: system.switch_cpus: Raw Gem5 Running in Cycle:        45900000, Inst:        81298891
1416997192000: system.switch_cpus: Raw Gem5 Running in Cycle:        46000000, Inst:        81494818
1417047192000: system.switch_cpus: Raw Gem5 Running in Cycle:        46100000, Inst:        81690546
1417097192000: system.switch_cpus: Raw Gem5 Running in Cycle:        46200000, Inst:        81887200
1417147192000: system.switch_cpus: Raw Gem5 Running in Cycle:        46300000, Inst:        82077950
1417197192000: system.switch_cpus: Raw Gem5 Running in Cycle:        46400000, Inst:        82248558
1417247192000: system.switch_cpus: Raw Gem5 Running in Cycle:        46500000, Inst:        82444505
1417297192000: system.switch_cpus: Raw Gem5 Running in Cycle:        46600000, Inst:        82641116
1417347192000: system.switch_cpus: Raw Gem5 Running in Cycle:        46700000, Inst:        82837747
1417397192000: system.switch_cpus: Raw Gem5 Running in Cycle:        46800000, Inst:        83034234
1417447192000: system.switch_cpus: Raw Gem5 Running in Cycle:        46900000, Inst:        83229851
1417497192000: system.switch_cpus: Raw Gem5 Running in Cycle:        47000000, Inst:        83425749
1417547192000: system.switch_cpus: Raw Gem5 Running in Cycle:        47100000, Inst:        83622015
1417597192000: system.switch_cpus: Raw Gem5 Running in Cycle:        47200000, Inst:        83809013
1417647192000: system.switch_cpus: Raw Gem5 Running in Cycle:        47300000, Inst:        83980779
1417697192000: system.switch_cpus: Raw Gem5 Running in Cycle:        47400000, Inst:        84176157
1417747192000: system.switch_cpus: Raw Gem5 Running in Cycle:        47500000, Inst:        84372686
1417797192000: system.switch_cpus: Raw Gem5 Running in Cycle:        47600000, Inst:        84569050
1417847192000: system.switch_cpus: Raw Gem5 Running in Cycle:        47700000, Inst:        84765660
1417897192000: system.switch_cpus: Raw Gem5 Running in Cycle:        47800000, Inst:        84961229
1417947192000: system.switch_cpus: Raw Gem5 Running in Cycle:        47900000, Inst:        85156814
1417997192000: system.switch_cpus: Raw Gem5 Running in Cycle:        48000000, Inst:        85353044
1418047192000: system.switch_cpus: Raw Gem5 Running in Cycle:        48100000, Inst:        85538048
1418097192000: system.switch_cpus: Raw Gem5 Running in Cycle:        48200000, Inst:        85711549
1418147192000: system.switch_cpus: Raw Gem5 Running in Cycle:        48300000, Inst:        85907079
1418197192000: system.switch_cpus: Raw Gem5 Running in Cycle:        48400000, Inst:        86103199
1418247192000: system.switch_cpus: Raw Gem5 Running in Cycle:        48500000, Inst:        86299704
1418297192000: system.switch_cpus: Raw Gem5 Running in Cycle:        48600000, Inst:        86495997
1418347192000: system.switch_cpus: Raw Gem5 Running in Cycle:        48700000, Inst:        86692009
1418397192000: system.switch_cpus: Raw Gem5 Running in Cycle:        48800000, Inst:        86887459
1418447192000: system.switch_cpus: Raw Gem5 Running in Cycle:        48900000, Inst:        87083133
1418497192000: system.switch_cpus: Raw Gem5 Running in Cycle:        49000000, Inst:        87268097
1418547192000: system.switch_cpus: Raw Gem5 Running in Cycle:        49100000, Inst:        87444684
1418597192000: system.switch_cpus: Raw Gem5 Running in Cycle:        49200000, Inst:        87640343
1418647192000: system.switch_cpus: Raw Gem5 Running in Cycle:        49300000, Inst:        87836034
1418697192000: system.switch_cpus: Raw Gem5 Running in Cycle:        49400000, Inst:        88032438
1418747192000: system.switch_cpus: Raw Gem5 Running in Cycle:        49500000, Inst:        88228919
1418797192000: system.switch_cpus: Raw Gem5 Running in Cycle:        49600000, Inst:        88425047
1418847192000: system.switch_cpus: Raw Gem5 Running in Cycle:        49700000, Inst:        88620795
1418897192000: system.switch_cpus: Raw Gem5 Running in Cycle:        49800000, Inst:        88816320
1418947192000: system.switch_cpus: Raw Gem5 Running in Cycle:        49900000, Inst:        88996287
1418997192000: system.switch_cpus: Raw Gem5 Running in Cycle:        50000000, Inst:        89175921
1419047192000: system.switch_cpus: Raw Gem5 Running in Cycle:        50100000, Inst:        89371482
1419097192000: system.switch_cpus: Raw Gem5 Running in Cycle:        50200000, Inst:        89567198
1419147192000: system.switch_cpus: Raw Gem5 Running in Cycle:        50300000, Inst:        89763580
1419197192000: system.switch_cpus: Raw Gem5 Running in Cycle:        50400000, Inst:        89960246
1419247192000: system.switch_cpus: Raw Gem5 Running in Cycle:        50500000, Inst:        90156515
1419297192000: system.switch_cpus: Raw Gem5 Running in Cycle:        50600000, Inst:        90351982
1419347192000: system.switch_cpus: Raw Gem5 Running in Cycle:        50700000, Inst:        90547714
1419397192000: system.switch_cpus: Raw Gem5 Running in Cycle:        50800000, Inst:        90727685
1419447192000: system.switch_cpus: Raw Gem5 Running in Cycle:        50900000, Inst:        90909557
1419497192000: system.switch_cpus: Raw Gem5 Running in Cycle:        51000000, Inst:        91105011
1419547192000: system.switch_cpus: Raw Gem5 Running in Cycle:        51100000, Inst:        91300187
1419597192000: system.switch_cpus: Raw Gem5 Running in Cycle:        51200000, Inst:        91496416
1419647192000: system.switch_cpus: Raw Gem5 Running in Cycle:        51300000, Inst:        91692735
1419697192000: system.switch_cpus: Raw Gem5 Running in Cycle:        51400000, Inst:        91889163
1419747192000: system.switch_cpus: Raw Gem5 Running in Cycle:        51500000, Inst:        92084839
1419797192000: system.switch_cpus: Raw Gem5 Running in Cycle:        51600000, Inst:        92280159
1419847192000: system.switch_cpus: Raw Gem5 Running in Cycle:        51700000, Inst:        92457399
1419897192000: system.switch_cpus: Raw Gem5 Running in Cycle:        51800000, Inst:        92641542
1419947192000: system.switch_cpus: Raw Gem5 Running in Cycle:        51900000, Inst:        92837234
1419997192000: system.switch_cpus: Raw Gem5 Running in Cycle:        52000000, Inst:        93032613
1420047192000: system.switch_cpus: Raw Gem5 Running in Cycle:        52100000, Inst:        93228270
1420097192000: system.switch_cpus: Raw Gem5 Running in Cycle:        52200000, Inst:        93424938
1420147192000: system.switch_cpus: Raw Gem5 Running in Cycle:        52300000, Inst:        93621211
1420197192000: system.switch_cpus: Raw Gem5 Running in Cycle:        52400000, Inst:        93817425
1420247192000: system.switch_cpus: Raw Gem5 Running in Cycle:        52500000, Inst:        94012814
1420297192000: system.switch_cpus: Raw Gem5 Running in Cycle:        52600000, Inst:        94184744
1420347192000: system.switch_cpus: Raw Gem5 Running in Cycle:        52700000, Inst:        94370709
1420397192000: system.switch_cpus: Raw Gem5 Running in Cycle:        52800000, Inst:        94566493
1420447192000: system.switch_cpus: Raw Gem5 Running in Cycle:        52900000, Inst:        94762500
1420497192000: system.switch_cpus: Raw Gem5 Running in Cycle:        53000000, Inst:        94958145
1420547192000: system.switch_cpus: Raw Gem5 Running in Cycle:        53100000, Inst:        95154858
1420597192000: system.switch_cpus: Raw Gem5 Running in Cycle:        53200000, Inst:        95351627
1420647192000: system.switch_cpus: Raw Gem5 Running in Cycle:        53300000, Inst:        95547957
1420697192000: system.switch_cpus: Raw Gem5 Running in Cycle:        53400000, Inst:        95743705
1420747192000: system.switch_cpus: Raw Gem5 Running in Cycle:        53500000, Inst:        95916129
1420797192000: system.switch_cpus: Raw Gem5 Running in Cycle:        53600000, Inst:        96105259
1420847192000: system.switch_cpus: Raw Gem5 Running in Cycle:        53700000, Inst:        96301638
1420897192000: system.switch_cpus: Raw Gem5 Running in Cycle:        53800000, Inst:        96497370
1420947192000: system.switch_cpus: Raw Gem5 Running in Cycle:        53900000, Inst:        96693217
1420997192000: system.switch_cpus: Raw Gem5 Running in Cycle:        54000000, Inst:        96889569
1421047192000: system.switch_cpus: Raw Gem5 Running in Cycle:        54100000, Inst:        97086257
1421097192000: system.switch_cpus: Raw Gem5 Running in Cycle:        54200000, Inst:        97282943
1421147192000: system.switch_cpus: Raw Gem5 Running in Cycle:        54300000, Inst:        97478889
1421197192000: system.switch_cpus: Raw Gem5 Running in Cycle:        54400000, Inst:        97646698
1421247192000: system.switch_cpus: Raw Gem5 Running in Cycle:        54500000, Inst:        97838688
1421297192000: system.switch_cpus: Raw Gem5 Running in Cycle:        54600000, Inst:        98035062
1421347192000: system.switch_cpus: Raw Gem5 Running in Cycle:        54700000, Inst:        98230773
1421397192000: system.switch_cpus: Raw Gem5 Running in Cycle:        54800000, Inst:        98426182
1421447192000: system.switch_cpus: Raw Gem5 Running in Cycle:        54900000, Inst:        98622057
1421497192000: system.switch_cpus: Raw Gem5 Running in Cycle:        55000000, Inst:        98818374
1421547192000: system.switch_cpus: Raw Gem5 Running in Cycle:        55100000, Inst:        99014884
1421597192000: system.switch_cpus: Raw Gem5 Running in Cycle:        55200000, Inst:        99211211
1421647192000: system.switch_cpus: Raw Gem5 Running in Cycle:        55300000, Inst:        99376074
1421697192000: system.switch_cpus: Raw Gem5 Running in Cycle:        55400000, Inst:        99570243
1421747192000: system.switch_cpus: Raw Gem5 Running in Cycle:        55500000, Inst:        99766704
1421797192000: system.switch_cpus: Raw Gem5 Running in Cycle:        55600000, Inst:        99962693
Exiting @ tick 1421806794000 because a thread reached the max instruction count
end time:(year-mon-day hour-minute-second)19-03-30 22-15-18
