
******************************directory****************************
spec_dir: /home/cuihongwei/experiment/mcpat-gem5-master/spec2006/benchspec/CPU2006
run_dir:  /home/cuihongwei/experiment/mcpat-gem5-master/spec2006/benchspec/CPU2006/481.wrf/run/run_base_ref_amd64.0001
gem5_dir: /home/cuihongwei/experiment/experiment-gem5/raw-gem5
gem5_output_dir: /home/cuihongwei/experiment/experiment-gem5/raw-gem5/output/481.wrf/alpha-OLD-481.wrf-input1-190330-235823
benchmark_output:/home/cuihongwei/experiment/experiment-gem5/raw-gem5/output/481.wrf/alpha-OLD-481.wrf-input1-190330-235823
checkpoint_dir:/home/cuihongwei/experiment/experiment-gem5/pubs-gem5/output/alpha-481.wrf-checkpoint-input1

******************************benchmark****************************
target:     481.wrf
executable: wrf
args:       
input:      
output:     /home/cuihongwei/experiment/experiment-gem5/raw-gem5/output/481.wrf/alpha-OLD-481.wrf-input1-190330-235823/rsl.out.0000
errout:     /home/cuihongwei/experiment/experiment-gem5/raw-gem5/output/481.wrf/alpha-OLD-481.wrf-input1-190330-235823/wrf.err

******************************gem5****************************
arch:       /home/cuihongwei/experiment/experiment-gem5/raw-gem5/build/ALPHA/gem5.opt
config:     /home/cuihongwei/experiment/experiment-gem5/raw-gem5/configs/example/se.py
args:       --num-cpus=1 --mem-size=8GB --caches --l1d_size=32kB --l1d_assoc=8 --l1i_size=32kB --l1i_assoc=8 --l2cache --l2_size=2MB --l2_assoc=16 --at-instruction --checkpoint-restore=5000000000 --maxinsts=100000000 --cpu-type=DerivO3CPU
debugFlag:  --debug-flags=ShowRunning

******************************simulation****************************
start time:(year-mon-day hour-minute-second)19-03-30 23-58-23
gem5 Simulator System.  http://gem5.org
gem5 is copyrighted software; use the --copyright option for details.

gem5 compiled Mar 30 2019 20:24:53
gem5 started Mar 30 2019 23:58:23
gem5 executing on mprc-R730, pid 15215
command line: /home/cuihongwei/experiment/experiment-gem5/raw-gem5/build/ALPHA/gem5.opt --outdir=/home/cuihongwei/experiment/experiment-gem5/raw-gem5/output/481.wrf/alpha-OLD-481.wrf-input1-190330-235823 --debug-flags=ShowRunning /home/cuihongwei/experiment/experiment-gem5/raw-gem5/configs/example/se.py --num-cpus=1 --mem-size=8GB --caches --l1d_size=32kB --l1d_assoc=8 --l1i_size=32kB --l1i_assoc=8 --l2cache --l2_size=2MB --l2_assoc=16 --at-instruction --checkpoint-restore=5000000000 --maxinsts=100000000 --cpu-type=DerivO3CPU --checkpoint-dir=/home/cuihongwei/experiment/experiment-gem5/pubs-gem5/output/alpha-481.wrf-checkpoint-input1 --cmd=/home/cuihongwei/experiment/mcpat-gem5-master/spec2006/benchspec/CPU2006/481.wrf/run/build_peak_alpha.0001/wrf --options= --output=/home/cuihongwei/experiment/experiment-gem5/raw-gem5/output/481.wrf/alpha-OLD-481.wrf-input1-190330-235823/rsl.out.0000 --input= --errout=/home/cuihongwei/experiment/experiment-gem5/raw-gem5/output/481.wrf/alpha-OLD-481.wrf-input1-190330-235823/wrf.err

Global frequency set at 1000000000000 ticks per second
Switch at curTick count:10000
Switched CPUS @ tick 1439312905000
switching cpus
**** REAL SIMULATION ****
1439312905500: system.switch_cpus: Raw Gem5 Running in Cycle:               0, Inst:               0
1439365607500: system.switch_cpus: Raw Gem5 Running in Cycle:          100000, Inst:          247868
1439415607500: system.switch_cpus: Raw Gem5 Running in Cycle:          200000, Inst:          520163
1439465607500: system.switch_cpus: Raw Gem5 Running in Cycle:          300000, Inst:          795962
1439515607500: system.switch_cpus: Raw Gem5 Running in Cycle:          400000, Inst:         1069638
1439565607500: system.switch_cpus: Raw Gem5 Running in Cycle:          500000, Inst:         1346388
1439615607500: system.switch_cpus: Raw Gem5 Running in Cycle:          600000, Inst:         1619884
1439665607500: system.switch_cpus: Raw Gem5 Running in Cycle:          700000, Inst:         1895169
1439715607500: system.switch_cpus: Raw Gem5 Running in Cycle:          800000, Inst:         2174110
1439765607500: system.switch_cpus: Raw Gem5 Running in Cycle:          900000, Inst:         2458723
1439815607500: system.switch_cpus: Raw Gem5 Running in Cycle:         1000000, Inst:         2743285
1439865607500: system.switch_cpus: Raw Gem5 Running in Cycle:         1100000, Inst:         3027784
1439915607500: system.switch_cpus: Raw Gem5 Running in Cycle:         1200000, Inst:         3309825
1439965607500: system.switch_cpus: Raw Gem5 Running in Cycle:         1300000, Inst:         3593392
1440015607500: system.switch_cpus: Raw Gem5 Running in Cycle:         1400000, Inst:         3869562
1440065607500: system.switch_cpus: Raw Gem5 Running in Cycle:         1500000, Inst:         4145247
1440115607500: system.switch_cpus: Raw Gem5 Running in Cycle:         1600000, Inst:         4422110
1440165607500: system.switch_cpus: Raw Gem5 Running in Cycle:         1700000, Inst:         4699990
1440215607500: system.switch_cpus: Raw Gem5 Running in Cycle:         1800000, Inst:         4976962
1440265607500: system.switch_cpus: Raw Gem5 Running in Cycle:         1900000, Inst:         5250163
1440315607500: system.switch_cpus: Raw Gem5 Running in Cycle:         2000000, Inst:         5526906
1440365607500: system.switch_cpus: Raw Gem5 Running in Cycle:         2100000, Inst:         5801136
1440415607500: system.switch_cpus: Raw Gem5 Running in Cycle:         2200000, Inst:         6039447
1440465607500: system.switch_cpus: Raw Gem5 Running in Cycle:         2300000, Inst:         6258937
1440515607500: system.switch_cpus: Raw Gem5 Running in Cycle:         2400000, Inst:         6478941
1440565607500: system.switch_cpus: Raw Gem5 Running in Cycle:         2500000, Inst:         6698962
1440615607500: system.switch_cpus: Raw Gem5 Running in Cycle:         2600000, Inst:         6918504
1440665607500: system.switch_cpus: Raw Gem5 Running in Cycle:         2700000, Inst:         7137909
1440716266500: system.switch_cpus: Raw Gem5 Running in Cycle:         2800000, Inst:         7346094
1440767299000: system.switch_cpus: Raw Gem5 Running in Cycle:         2900000, Inst:         7570304
1440817299000: system.switch_cpus: Raw Gem5 Running in Cycle:         3000000, Inst:         7798191
1440867299000: system.switch_cpus: Raw Gem5 Running in Cycle:         3100000, Inst:         8026479
1440917299000: system.switch_cpus: Raw Gem5 Running in Cycle:         3200000, Inst:         8254767
1440967299000: system.switch_cpus: Raw Gem5 Running in Cycle:         3300000, Inst:         8483066
1441017299000: system.switch_cpus: Raw Gem5 Running in Cycle:         3400000, Inst:         8711219
1441067299000: system.switch_cpus: Raw Gem5 Running in Cycle:         3500000, Inst:         8958334
1441117299000: system.switch_cpus: Raw Gem5 Running in Cycle:         3600000, Inst:         9241609
1441167299000: system.switch_cpus: Raw Gem5 Running in Cycle:         3700000, Inst:         9528579
1441217299000: system.switch_cpus: Raw Gem5 Running in Cycle:         3800000, Inst:         9813308
1441267299000: system.switch_cpus: Raw Gem5 Running in Cycle:         3900000, Inst:        10096557
1441317299000: system.switch_cpus: Raw Gem5 Running in Cycle:         4000000, Inst:        10382761
1441367299000: system.switch_cpus: Raw Gem5 Running in Cycle:         4100000, Inst:        10668766
1441417299000: system.switch_cpus: Raw Gem5 Running in Cycle:         4200000, Inst:        10952867
1441467299000: system.switch_cpus: Raw Gem5 Running in Cycle:         4300000, Inst:        11238214
1441517299000: system.switch_cpus: Raw Gem5 Running in Cycle:         4400000, Inst:        11525754
1441567299000: system.switch_cpus: Raw Gem5 Running in Cycle:         4500000, Inst:        11808716
1441617299000: system.switch_cpus: Raw Gem5 Running in Cycle:         4600000, Inst:        12093018
1441667299000: system.switch_cpus: Raw Gem5 Running in Cycle:         4700000, Inst:        12380886
1441717299000: system.switch_cpus: Raw Gem5 Running in Cycle:         4800000, Inst:        12666261
1441767299000: system.switch_cpus: Raw Gem5 Running in Cycle:         4900000, Inst:        12955109
1441817299000: system.switch_cpus: Raw Gem5 Running in Cycle:         5000000, Inst:        13240199
1441867299000: system.switch_cpus: Raw Gem5 Running in Cycle:         5100000, Inst:        13526539
1441917299000: system.switch_cpus: Raw Gem5 Running in Cycle:         5200000, Inst:        13814323
1441967299000: system.switch_cpus: Raw Gem5 Running in Cycle:         5300000, Inst:        14098974
1442017299000: system.switch_cpus: Raw Gem5 Running in Cycle:         5400000, Inst:        14386470
1442067299000: system.switch_cpus: Raw Gem5 Running in Cycle:         5500000, Inst:        14672874
1442117299000: system.switch_cpus: Raw Gem5 Running in Cycle:         5600000, Inst:        14956802
1442167299000: system.switch_cpus: Raw Gem5 Running in Cycle:         5700000, Inst:        15202565
1442217299000: system.switch_cpus: Raw Gem5 Running in Cycle:         5800000, Inst:        15430866
1442267299000: system.switch_cpus: Raw Gem5 Running in Cycle:         5900000, Inst:        15659154
1442317299000: system.switch_cpus: Raw Gem5 Running in Cycle:         6000000, Inst:        15887440
1442367299000: system.switch_cpus: Raw Gem5 Running in Cycle:         6100000, Inst:        16115603
1442417299000: system.switch_cpus: Raw Gem5 Running in Cycle:         6200000, Inst:        16344473
1442467299000: system.switch_cpus: Raw Gem5 Running in Cycle:         6300000, Inst:        16572045
1442517299000: system.switch_cpus: Raw Gem5 Running in Cycle:         6400000, Inst:        16798730
1442567299000: system.switch_cpus: Raw Gem5 Running in Cycle:         6500000, Inst:        17027031
1442617299000: system.switch_cpus: Raw Gem5 Running in Cycle:         6600000, Inst:        17255317
1442667299000: system.switch_cpus: Raw Gem5 Running in Cycle:         6700000, Inst:        17483440
1442717299000: system.switch_cpus: Raw Gem5 Running in Cycle:         6800000, Inst:        17711870
1442767299000: system.switch_cpus: Raw Gem5 Running in Cycle:         6900000, Inst:        17939891
1442817299000: system.switch_cpus: Raw Gem5 Running in Cycle:         7000000, Inst:        18215780
1442867299000: system.switch_cpus: Raw Gem5 Running in Cycle:         7100000, Inst:        18501868
1442917299000: system.switch_cpus: Raw Gem5 Running in Cycle:         7200000, Inst:        18786533
1442967299000: system.switch_cpus: Raw Gem5 Running in Cycle:         7300000, Inst:        19071195
1443017299000: system.switch_cpus: Raw Gem5 Running in Cycle:         7400000, Inst:        19357805
1443067299000: system.switch_cpus: Raw Gem5 Running in Cycle:         7500000, Inst:        19642633
1443117299000: system.switch_cpus: Raw Gem5 Running in Cycle:         7600000, Inst:        19926189
1443167299000: system.switch_cpus: Raw Gem5 Running in Cycle:         7700000, Inst:        20212376
1443217299000: system.switch_cpus: Raw Gem5 Running in Cycle:         7800000, Inst:        20498870
1443267299000: system.switch_cpus: Raw Gem5 Running in Cycle:         7900000, Inst:        20783195
1443317299000: system.switch_cpus: Raw Gem5 Running in Cycle:         8000000, Inst:        21071289
1443367299000: system.switch_cpus: Raw Gem5 Running in Cycle:         8100000, Inst:        21357784
1443417299000: system.switch_cpus: Raw Gem5 Running in Cycle:         8200000, Inst:        21642252
1443467299000: system.switch_cpus: Raw Gem5 Running in Cycle:         8300000, Inst:        21930268
1443517299000: system.switch_cpus: Raw Gem5 Running in Cycle:         8400000, Inst:        22216029
1443567299000: system.switch_cpus: Raw Gem5 Running in Cycle:         8500000, Inst:        22497227
1443617299000: system.switch_cpus: Raw Gem5 Running in Cycle:         8600000, Inst:        22784478
1443667299000: system.switch_cpus: Raw Gem5 Running in Cycle:         8700000, Inst:        23071724
1443717299000: system.switch_cpus: Raw Gem5 Running in Cycle:         8800000, Inst:        23360565
1443767299000: system.switch_cpus: Raw Gem5 Running in Cycle:         8900000, Inst:        23646834
1443817299000: system.switch_cpus: Raw Gem5 Running in Cycle:         9000000, Inst:        23932013
1443867299000: system.switch_cpus: Raw Gem5 Running in Cycle:         9100000, Inst:        24214991
1443917299000: system.switch_cpus: Raw Gem5 Running in Cycle:         9200000, Inst:        24443289
1443967299000: system.switch_cpus: Raw Gem5 Running in Cycle:         9300000, Inst:        24671449
1444017299000: system.switch_cpus: Raw Gem5 Running in Cycle:         9400000, Inst:        24899780
1444067299000: system.switch_cpus: Raw Gem5 Running in Cycle:         9500000, Inst:        25127872
1444117299000: system.switch_cpus: Raw Gem5 Running in Cycle:         9600000, Inst:        25356892
1444167299000: system.switch_cpus: Raw Gem5 Running in Cycle:         9700000, Inst:        25585185
1444217299000: system.switch_cpus: Raw Gem5 Running in Cycle:         9800000, Inst:        25811101
1444267299000: system.switch_cpus: Raw Gem5 Running in Cycle:         9900000, Inst:        26039220
1444317299000: system.switch_cpus: Raw Gem5 Running in Cycle:        10000000, Inst:        26267673
1444367299000: system.switch_cpus: Raw Gem5 Running in Cycle:        10100000, Inst:        26495694
1444417299000: system.switch_cpus: Raw Gem5 Running in Cycle:        10200000, Inst:        26723915
1444467299000: system.switch_cpus: Raw Gem5 Running in Cycle:        10300000, Inst:        26951915
1444517299000: system.switch_cpus: Raw Gem5 Running in Cycle:        10400000, Inst:        27190629
1444567299000: system.switch_cpus: Raw Gem5 Running in Cycle:        10500000, Inst:        27478932
1444617299000: system.switch_cpus: Raw Gem5 Running in Cycle:        10600000, Inst:        27763292
1444667299000: system.switch_cpus: Raw Gem5 Running in Cycle:        10700000, Inst:        28043765
1444717299000: system.switch_cpus: Raw Gem5 Running in Cycle:        10800000, Inst:        28329577
1444767299000: system.switch_cpus: Raw Gem5 Running in Cycle:        10900000, Inst:        28615483
1444817299000: system.switch_cpus: Raw Gem5 Running in Cycle:        11000000, Inst:        28899905
1444867299000: system.switch_cpus: Raw Gem5 Running in Cycle:        11100000, Inst:        29188126
1444917299000: system.switch_cpus: Raw Gem5 Running in Cycle:        11200000, Inst:        29473555
1444967299000: system.switch_cpus: Raw Gem5 Running in Cycle:        11300000, Inst:        29758517
1445017299000: system.switch_cpus: Raw Gem5 Running in Cycle:        11400000, Inst:        30046316
1445067299000: system.switch_cpus: Raw Gem5 Running in Cycle:        11500000, Inst:        30331894
1445117299000: system.switch_cpus: Raw Gem5 Running in Cycle:        11600000, Inst:        30617322
1445167299000: system.switch_cpus: Raw Gem5 Running in Cycle:        11700000, Inst:        30904948
1445217299000: system.switch_cpus: Raw Gem5 Running in Cycle:        11800000, Inst:        31190160
1445267299000: system.switch_cpus: Raw Gem5 Running in Cycle:        11900000, Inst:        31475869
1445317299000: system.switch_cpus: Raw Gem5 Running in Cycle:        12000000, Inst:        31763906
1445367299000: system.switch_cpus: Raw Gem5 Running in Cycle:        12100000, Inst:        32048605
1445417299000: system.switch_cpus: Raw Gem5 Running in Cycle:        12200000, Inst:        32336143
1445467299000: system.switch_cpus: Raw Gem5 Running in Cycle:        12300000, Inst:        32622909
1445517299000: system.switch_cpus: Raw Gem5 Running in Cycle:        12400000, Inst:        32904303
1445567299000: system.switch_cpus: Raw Gem5 Running in Cycle:        12500000, Inst:        33191386
1445617299000: system.switch_cpus: Raw Gem5 Running in Cycle:        12600000, Inst:        33455816
1445667299000: system.switch_cpus: Raw Gem5 Running in Cycle:        12700000, Inst:        33683867
1445717299000: system.switch_cpus: Raw Gem5 Running in Cycle:        12800000, Inst:        33912029
1445767299000: system.switch_cpus: Raw Gem5 Running in Cycle:        12900000, Inst:        34140043
1445817299000: system.switch_cpus: Raw Gem5 Running in Cycle:        13000000, Inst:        34369554
1445867299000: system.switch_cpus: Raw Gem5 Running in Cycle:        13100000, Inst:        34597723
1445917299000: system.switch_cpus: Raw Gem5 Running in Cycle:        13200000, Inst:        34822828
1445969346500: system.switch_cpus: Raw Gem5 Running in Cycle:        13300000, Inst:        34927812
1446019346500: system.switch_cpus: Raw Gem5 Running in Cycle:        13400000, Inst:        34974410
1446069346500: system.switch_cpus: Raw Gem5 Running in Cycle:        13500000, Inst:        35021309
1446119346500: system.switch_cpus: Raw Gem5 Running in Cycle:        13600000, Inst:        35067674
1446169346500: system.switch_cpus: Raw Gem5 Running in Cycle:        13700000, Inst:        35114146
1446219346500: system.switch_cpus: Raw Gem5 Running in Cycle:        13800000, Inst:        35160733
1446269346500: system.switch_cpus: Raw Gem5 Running in Cycle:        13900000, Inst:        35207339
1446319346500: system.switch_cpus: Raw Gem5 Running in Cycle:        14000000, Inst:        35253954
1446369346500: system.switch_cpus: Raw Gem5 Running in Cycle:        14100000, Inst:        35300849
1446419346500: system.switch_cpus: Raw Gem5 Running in Cycle:        14200000, Inst:        35346977
1446469346500: system.switch_cpus: Raw Gem5 Running in Cycle:        14300000, Inst:        35393409
1446519346500: system.switch_cpus: Raw Gem5 Running in Cycle:        14400000, Inst:        35440081
1446569346500: system.switch_cpus: Raw Gem5 Running in Cycle:        14500000, Inst:        35486137
1446619346500: system.switch_cpus: Raw Gem5 Running in Cycle:        14600000, Inst:        35533546
1446669346500: system.switch_cpus: Raw Gem5 Running in Cycle:        14700000, Inst:        35578557
1446719346500: system.switch_cpus: Raw Gem5 Running in Cycle:        14800000, Inst:        35625441
1446769346500: system.switch_cpus: Raw Gem5 Running in Cycle:        14900000, Inst:        35672201
1446819346500: system.switch_cpus: Raw Gem5 Running in Cycle:        15000000, Inst:        35718175
1446869346500: system.switch_cpus: Raw Gem5 Running in Cycle:        15100000, Inst:        35764269
1446919346500: system.switch_cpus: Raw Gem5 Running in Cycle:        15200000, Inst:        35810752
1446969346500: system.switch_cpus: Raw Gem5 Running in Cycle:        15300000, Inst:        35856268
1447019346500: system.switch_cpus: Raw Gem5 Running in Cycle:        15400000, Inst:        35903762
1447069346500: system.switch_cpus: Raw Gem5 Running in Cycle:        15500000, Inst:        35950079
1447119346500: system.switch_cpus: Raw Gem5 Running in Cycle:        15600000, Inst:        35996861
1447169346500: system.switch_cpus: Raw Gem5 Running in Cycle:        15700000, Inst:        36043159
1447219346500: system.switch_cpus: Raw Gem5 Running in Cycle:        15800000, Inst:        36089896
1447269346500: system.switch_cpus: Raw Gem5 Running in Cycle:        15900000, Inst:        36137506
1447319346500: system.switch_cpus: Raw Gem5 Running in Cycle:        16000000, Inst:        36184206
1447369346500: system.switch_cpus: Raw Gem5 Running in Cycle:        16100000, Inst:        36230975
1447419346500: system.switch_cpus: Raw Gem5 Running in Cycle:        16200000, Inst:        36277824
1447469346500: system.switch_cpus: Raw Gem5 Running in Cycle:        16300000, Inst:        36325036
1447519624500: system.switch_cpus: Raw Gem5 Running in Cycle:        16400000, Inst:        36398313
1447569624500: system.switch_cpus: Raw Gem5 Running in Cycle:        16500000, Inst:        36554137
1447619672500: system.switch_cpus: Raw Gem5 Running in Cycle:        16600000, Inst:        36747858
1447669672500: system.switch_cpus: Raw Gem5 Running in Cycle:        16700000, Inst:        36996525
1447719672500: system.switch_cpus: Raw Gem5 Running in Cycle:        16800000, Inst:        37241311
1447769672500: system.switch_cpus: Raw Gem5 Running in Cycle:        16900000, Inst:        37490340
1447819672500: system.switch_cpus: Raw Gem5 Running in Cycle:        17000000, Inst:        37739623
1447869672500: system.switch_cpus: Raw Gem5 Running in Cycle:        17100000, Inst:        37989205
1447919672500: system.switch_cpus: Raw Gem5 Running in Cycle:        17200000, Inst:        38239522
1447969672500: system.switch_cpus: Raw Gem5 Running in Cycle:        17300000, Inst:        38491009
1448019672500: system.switch_cpus: Raw Gem5 Running in Cycle:        17400000, Inst:        38741745
1448072477000: system.switch_cpus: Raw Gem5 Running in Cycle:        17500000, Inst:        38962758
1448122477000: system.switch_cpus: Raw Gem5 Running in Cycle:        17600000, Inst:        39191453
1448172477000: system.switch_cpus: Raw Gem5 Running in Cycle:        17700000, Inst:        39419506
1448222477000: system.switch_cpus: Raw Gem5 Running in Cycle:        17800000, Inst:        39647104
1448272477000: system.switch_cpus: Raw Gem5 Running in Cycle:        17900000, Inst:        39875264
1448322477000: system.switch_cpus: Raw Gem5 Running in Cycle:        18000000, Inst:        40103552
1448372477000: system.switch_cpus: Raw Gem5 Running in Cycle:        18100000, Inst:        40378464
1448422477000: system.switch_cpus: Raw Gem5 Running in Cycle:        18200000, Inst:        40672534
1448472477000: system.switch_cpus: Raw Gem5 Running in Cycle:        18300000, Inst:        40963885
1448522477000: system.switch_cpus: Raw Gem5 Running in Cycle:        18400000, Inst:        41258396
1448572477000: system.switch_cpus: Raw Gem5 Running in Cycle:        18500000, Inst:        41550781
1448622477000: system.switch_cpus: Raw Gem5 Running in Cycle:        18600000, Inst:        41843220
1448672477000: system.switch_cpus: Raw Gem5 Running in Cycle:        18700000, Inst:        42138414
1448722477000: system.switch_cpus: Raw Gem5 Running in Cycle:        18800000, Inst:        42429451
1448772477000: system.switch_cpus: Raw Gem5 Running in Cycle:        18900000, Inst:        42723565
1448822477000: system.switch_cpus: Raw Gem5 Running in Cycle:        19000000, Inst:        43016620
1448872477000: system.switch_cpus: Raw Gem5 Running in Cycle:        19100000, Inst:        43311325
1448922477000: system.switch_cpus: Raw Gem5 Running in Cycle:        19200000, Inst:        43603466
1448972477000: system.switch_cpus: Raw Gem5 Running in Cycle:        19300000, Inst:        43897660
1449022477000: system.switch_cpus: Raw Gem5 Running in Cycle:        19400000, Inst:        44188364
1449072477000: system.switch_cpus: Raw Gem5 Running in Cycle:        19500000, Inst:        44480475
1449122477000: system.switch_cpus: Raw Gem5 Running in Cycle:        19600000, Inst:        44772757
1449172477000: system.switch_cpus: Raw Gem5 Running in Cycle:        19700000, Inst:        45064471
1449222477000: system.switch_cpus: Raw Gem5 Running in Cycle:        19800000, Inst:        45358779
1449272477000: system.switch_cpus: Raw Gem5 Running in Cycle:        19900000, Inst:        45649598
1449322477000: system.switch_cpus: Raw Gem5 Running in Cycle:        20000000, Inst:        45944416
1449372477000: system.switch_cpus: Raw Gem5 Running in Cycle:        20100000, Inst:        46240232
1449422477000: system.switch_cpus: Raw Gem5 Running in Cycle:        20200000, Inst:        46498631
1449472477000: system.switch_cpus: Raw Gem5 Running in Cycle:        20300000, Inst:        46726928
1449522477000: system.switch_cpus: Raw Gem5 Running in Cycle:        20400000, Inst:        46955770
1449572477000: system.switch_cpus: Raw Gem5 Running in Cycle:        20500000, Inst:        47184072
1449622477000: system.switch_cpus: Raw Gem5 Running in Cycle:        20600000, Inst:        47412357
1449672477000: system.switch_cpus: Raw Gem5 Running in Cycle:        20700000, Inst:        47640463
1449722477000: system.switch_cpus: Raw Gem5 Running in Cycle:        20800000, Inst:        47867936
1449772477000: system.switch_cpus: Raw Gem5 Running in Cycle:        20900000, Inst:        48094986
1449822477000: system.switch_cpus: Raw Gem5 Running in Cycle:        21000000, Inst:        48323025
1449872477000: system.switch_cpus: Raw Gem5 Running in Cycle:        21100000, Inst:        48551270
1449922477000: system.switch_cpus: Raw Gem5 Running in Cycle:        21200000, Inst:        48780327
1449972477000: system.switch_cpus: Raw Gem5 Running in Cycle:        21300000, Inst:        49008564
1450022477000: system.switch_cpus: Raw Gem5 Running in Cycle:        21400000, Inst:        49236823
1450072477000: system.switch_cpus: Raw Gem5 Running in Cycle:        21500000, Inst:        49511386
1450122477000: system.switch_cpus: Raw Gem5 Running in Cycle:        21600000, Inst:        49802095
1450172477000: system.switch_cpus: Raw Gem5 Running in Cycle:        21700000, Inst:        50096792
1450222477000: system.switch_cpus: Raw Gem5 Running in Cycle:        21800000, Inst:        50392079
1450272477000: system.switch_cpus: Raw Gem5 Running in Cycle:        21900000, Inst:        50683769
1450322477000: system.switch_cpus: Raw Gem5 Running in Cycle:        22000000, Inst:        50978504
1450372477000: system.switch_cpus: Raw Gem5 Running in Cycle:        22100000, Inst:        51272014
1450422477000: system.switch_cpus: Raw Gem5 Running in Cycle:        22200000, Inst:        51563422
1450472477000: system.switch_cpus: Raw Gem5 Running in Cycle:        22300000, Inst:        51858023
1450522477000: system.switch_cpus: Raw Gem5 Running in Cycle:        22400000, Inst:        52148828
1450572477000: system.switch_cpus: Raw Gem5 Running in Cycle:        22500000, Inst:        52443264
1450622477000: system.switch_cpus: Raw Gem5 Running in Cycle:        22600000, Inst:        52736784
1450672477000: system.switch_cpus: Raw Gem5 Running in Cycle:        22700000, Inst:        53030744
1450722477000: system.switch_cpus: Raw Gem5 Running in Cycle:        22800000, Inst:        53322285
1450772477000: system.switch_cpus: Raw Gem5 Running in Cycle:        22900000, Inst:        53615073
1450822477000: system.switch_cpus: Raw Gem5 Running in Cycle:        23000000, Inst:        53906304
1450872477000: system.switch_cpus: Raw Gem5 Running in Cycle:        23100000, Inst:        54200493
1450922477000: system.switch_cpus: Raw Gem5 Running in Cycle:        23200000, Inst:        54493861
1450972477000: system.switch_cpus: Raw Gem5 Running in Cycle:        23300000, Inst:        54784614
1451022477000: system.switch_cpus: Raw Gem5 Running in Cycle:        23400000, Inst:        55079900
1451072477000: system.switch_cpus: Raw Gem5 Running in Cycle:        23500000, Inst:        55374629
1451122477000: system.switch_cpus: Raw Gem5 Running in Cycle:        23600000, Inst:        55639897
1451172477000: system.switch_cpus: Raw Gem5 Running in Cycle:        23700000, Inst:        55868185
1451222477000: system.switch_cpus: Raw Gem5 Running in Cycle:        23800000, Inst:        56096484
1451272477000: system.switch_cpus: Raw Gem5 Running in Cycle:        23900000, Inst:        56324672
1451322477000: system.switch_cpus: Raw Gem5 Running in Cycle:        24000000, Inst:        56553504
1451372477000: system.switch_cpus: Raw Gem5 Running in Cycle:        24100000, Inst:        56781792
1451422477000: system.switch_cpus: Raw Gem5 Running in Cycle:        24200000, Inst:        57007700
1451472477000: system.switch_cpus: Raw Gem5 Running in Cycle:        24300000, Inst:        57236207
1451522477000: system.switch_cpus: Raw Gem5 Running in Cycle:        24400000, Inst:        57464495
1451572477000: system.switch_cpus: Raw Gem5 Running in Cycle:        24500000, Inst:        57692781
1451622477000: system.switch_cpus: Raw Gem5 Running in Cycle:        24600000, Inst:        57920933
1451672477000: system.switch_cpus: Raw Gem5 Running in Cycle:        24700000, Inst:        58149320
1451722477000: system.switch_cpus: Raw Gem5 Running in Cycle:        24800000, Inst:        58378102
1451772477000: system.switch_cpus: Raw Gem5 Running in Cycle:        24900000, Inst:        58646251
1451822477000: system.switch_cpus: Raw Gem5 Running in Cycle:        25000000, Inst:        58938585
1451872477000: system.switch_cpus: Raw Gem5 Running in Cycle:        25100000, Inst:        59232444
1451922477000: system.switch_cpus: Raw Gem5 Running in Cycle:        25200000, Inst:        59523143
1451972477000: system.switch_cpus: Raw Gem5 Running in Cycle:        25300000, Inst:        59818366
1452022477000: system.switch_cpus: Raw Gem5 Running in Cycle:        25400000, Inst:        60114294
1452072477000: system.switch_cpus: Raw Gem5 Running in Cycle:        25500000, Inst:        60406721
1452122477000: system.switch_cpus: Raw Gem5 Running in Cycle:        25600000, Inst:        60699923
1452172477000: system.switch_cpus: Raw Gem5 Running in Cycle:        25700000, Inst:        60993291
1452222477000: system.switch_cpus: Raw Gem5 Running in Cycle:        25800000, Inst:        61283790
1452272477000: system.switch_cpus: Raw Gem5 Running in Cycle:        25900000, Inst:        61579133
1452322477000: system.switch_cpus: Raw Gem5 Running in Cycle:        26000000, Inst:        61871118
1452372477000: system.switch_cpus: Raw Gem5 Running in Cycle:        26100000, Inst:        62163861
1452422477000: system.switch_cpus: Raw Gem5 Running in Cycle:        26200000, Inst:        62457444
1452472477000: system.switch_cpus: Raw Gem5 Running in Cycle:        26300000, Inst:        62750346
1452522477000: system.switch_cpus: Raw Gem5 Running in Cycle:        26400000, Inst:        63041986
1452572477000: system.switch_cpus: Raw Gem5 Running in Cycle:        26500000, Inst:        63336981
1452622477000: system.switch_cpus: Raw Gem5 Running in Cycle:        26600000, Inst:        63629202
1452672477000: system.switch_cpus: Raw Gem5 Running in Cycle:        26700000, Inst:        63921691
1452722477000: system.switch_cpus: Raw Gem5 Running in Cycle:        26800000, Inst:        64216841
1452772477000: system.switch_cpus: Raw Gem5 Running in Cycle:        26900000, Inst:        64510297
1452822477000: system.switch_cpus: Raw Gem5 Running in Cycle:        27000000, Inst:        64783106
1452872477000: system.switch_cpus: Raw Gem5 Running in Cycle:        27100000, Inst:        65011079
1452922477000: system.switch_cpus: Raw Gem5 Running in Cycle:        27200000, Inst:        65239144
1452972477000: system.switch_cpus: Raw Gem5 Running in Cycle:        27300000, Inst:        65466668
1453022477000: system.switch_cpus: Raw Gem5 Running in Cycle:        27400000, Inst:        65694956
1453072477000: system.switch_cpus: Raw Gem5 Running in Cycle:        27500000, Inst:        65924586
1453122477000: system.switch_cpus: Raw Gem5 Running in Cycle:        27600000, Inst:        66151919
1453172477000: system.switch_cpus: Raw Gem5 Running in Cycle:        27700000, Inst:        66377917
1453222477000: system.switch_cpus: Raw Gem5 Running in Cycle:        27800000, Inst:        66607344
1453272477000: system.switch_cpus: Raw Gem5 Running in Cycle:        27900000, Inst:        66835351
1453322477000: system.switch_cpus: Raw Gem5 Running in Cycle:        28000000, Inst:        67063036
1453372477000: system.switch_cpus: Raw Gem5 Running in Cycle:        28100000, Inst:        67291337
1453422477000: system.switch_cpus: Raw Gem5 Running in Cycle:        28200000, Inst:        67519625
1453472477000: system.switch_cpus: Raw Gem5 Running in Cycle:        28300000, Inst:        67782608
1453522477000: system.switch_cpus: Raw Gem5 Running in Cycle:        28400000, Inst:        68076070
1453572477000: system.switch_cpus: Raw Gem5 Running in Cycle:        28500000, Inst:        68368554
1453622477000: system.switch_cpus: Raw Gem5 Running in Cycle:        28600000, Inst:        68660312
1453672477000: system.switch_cpus: Raw Gem5 Running in Cycle:        28700000, Inst:        68954753
1453722477000: system.switch_cpus: Raw Gem5 Running in Cycle:        28800000, Inst:        69246402
1453772477000: system.switch_cpus: Raw Gem5 Running in Cycle:        28900000, Inst:        69540972
1453822477000: system.switch_cpus: Raw Gem5 Running in Cycle:        29000000, Inst:        69836927
1453872477000: system.switch_cpus: Raw Gem5 Running in Cycle:        29100000, Inst:        70129585
1453922477000: system.switch_cpus: Raw Gem5 Running in Cycle:        29200000, Inst:        70421107
1453972477000: system.switch_cpus: Raw Gem5 Running in Cycle:        29300000, Inst:        70716157
1454022477000: system.switch_cpus: Raw Gem5 Running in Cycle:        29400000, Inst:        71006936
1454072477000: system.switch_cpus: Raw Gem5 Running in Cycle:        29500000, Inst:        71301097
1454122477000: system.switch_cpus: Raw Gem5 Running in Cycle:        29600000, Inst:        71594628
1454172477000: system.switch_cpus: Raw Gem5 Running in Cycle:        29700000, Inst:        71883956
1454222477000: system.switch_cpus: Raw Gem5 Running in Cycle:        29800000, Inst:        72178446
1454272477000: system.switch_cpus: Raw Gem5 Running in Cycle:        29900000, Inst:        72473567
1454322477000: system.switch_cpus: Raw Gem5 Running in Cycle:        30000000, Inst:        72765607
1454372477000: system.switch_cpus: Raw Gem5 Running in Cycle:        30100000, Inst:        73059085
1454422477000: system.switch_cpus: Raw Gem5 Running in Cycle:        30200000, Inst:        73353754
1454472477000: system.switch_cpus: Raw Gem5 Running in Cycle:        30300000, Inst:        73646569
1454522477000: system.switch_cpus: Raw Gem5 Running in Cycle:        30400000, Inst:        73924252
1454572477000: system.switch_cpus: Raw Gem5 Running in Cycle:        30500000, Inst:        74153660
1454622477000: system.switch_cpus: Raw Gem5 Running in Cycle:        30600000, Inst:        74381777
1454672477000: system.switch_cpus: Raw Gem5 Running in Cycle:        30700000, Inst:        74610051
1454722477000: system.switch_cpus: Raw Gem5 Running in Cycle:        30800000, Inst:        74838174
1454772477000: system.switch_cpus: Raw Gem5 Running in Cycle:        30900000, Inst:        75066260
1454822477000: system.switch_cpus: Raw Gem5 Running in Cycle:        31000000, Inst:        75294305
1454872477000: system.switch_cpus: Raw Gem5 Running in Cycle:        31100000, Inst:        75520408
1454922477000: system.switch_cpus: Raw Gem5 Running in Cycle:        31200000, Inst:        75748280
1454972477000: system.switch_cpus: Raw Gem5 Running in Cycle:        31300000, Inst:        75977997
1455022477000: system.switch_cpus: Raw Gem5 Running in Cycle:        31400000, Inst:        76206175
1455072477000: system.switch_cpus: Raw Gem5 Running in Cycle:        31500000, Inst:        76434411
1455122477000: system.switch_cpus: Raw Gem5 Running in Cycle:        31600000, Inst:        76662406
1455172477000: system.switch_cpus: Raw Gem5 Running in Cycle:        31700000, Inst:        76918933
1455222477000: system.switch_cpus: Raw Gem5 Running in Cycle:        31800000, Inst:        77212374
1455272477000: system.switch_cpus: Raw Gem5 Running in Cycle:        31900000, Inst:        77503893
1455322477000: system.switch_cpus: Raw Gem5 Running in Cycle:        32000000, Inst:        77797326
1455372477000: system.switch_cpus: Raw Gem5 Running in Cycle:        32100000, Inst:        78091451
1455422477000: system.switch_cpus: Raw Gem5 Running in Cycle:        32200000, Inst:        78382772
1455472477000: system.switch_cpus: Raw Gem5 Running in Cycle:        32300000, Inst:        78677878
1455522477000: system.switch_cpus: Raw Gem5 Running in Cycle:        32400000, Inst:        78970605
1455572477000: system.switch_cpus: Raw Gem5 Running in Cycle:        32500000, Inst:        79264782
1455622477000: system.switch_cpus: Raw Gem5 Running in Cycle:        32600000, Inst:        79558666
1455672477000: system.switch_cpus: Raw Gem5 Running in Cycle:        32700000, Inst:        79852703
1455722477000: system.switch_cpus: Raw Gem5 Running in Cycle:        32800000, Inst:        80143562
1455772477000: system.switch_cpus: Raw Gem5 Running in Cycle:        32900000, Inst:        80437966
1455822477000: system.switch_cpus: Raw Gem5 Running in Cycle:        33000000, Inst:        80730055
1455872477000: system.switch_cpus: Raw Gem5 Running in Cycle:        33100000, Inst:        81021399
1455922477000: system.switch_cpus: Raw Gem5 Running in Cycle:        33200000, Inst:        81315037
1455972477000: system.switch_cpus: Raw Gem5 Running in Cycle:        33300000, Inst:        81606575
1456022477000: system.switch_cpus: Raw Gem5 Running in Cycle:        33400000, Inst:        81900846
1456072477000: system.switch_cpus: Raw Gem5 Running in Cycle:        33500000, Inst:        82196397
1456122477000: system.switch_cpus: Raw Gem5 Running in Cycle:        33600000, Inst:        82490397
1456172477000: system.switch_cpus: Raw Gem5 Running in Cycle:        33700000, Inst:        82782918
1456222477000: system.switch_cpus: Raw Gem5 Running in Cycle:        33800000, Inst:        83066683
1456272477000: system.switch_cpus: Raw Gem5 Running in Cycle:        33900000, Inst:        83294903
1456322477000: system.switch_cpus: Raw Gem5 Running in Cycle:        34000000, Inst:        83523162
1456372477000: system.switch_cpus: Raw Gem5 Running in Cycle:        34100000, Inst:        83752031
1456422477000: system.switch_cpus: Raw Gem5 Running in Cycle:        34200000, Inst:        83980333
1456472477000: system.switch_cpus: Raw Gem5 Running in Cycle:        34300000, Inst:        84208618
1456522477000: system.switch_cpus: Raw Gem5 Running in Cycle:        34400000, Inst:        84436741
1456572477000: system.switch_cpus: Raw Gem5 Running in Cycle:        34500000, Inst:        84662936
1456622477000: system.switch_cpus: Raw Gem5 Running in Cycle:        34600000, Inst:        84891358
1456672477000: system.switch_cpus: Raw Gem5 Running in Cycle:        34700000, Inst:        85119379
1456722477000: system.switch_cpus: Raw Gem5 Running in Cycle:        34800000, Inst:        85347652
1456772477000: system.switch_cpus: Raw Gem5 Running in Cycle:        34900000, Inst:        85576669
1456822477000: system.switch_cpus: Raw Gem5 Running in Cycle:        35000000, Inst:        85804955
1456872477000: system.switch_cpus: Raw Gem5 Running in Cycle:        35100000, Inst:        86055157
1456922477000: system.switch_cpus: Raw Gem5 Running in Cycle:        35200000, Inst:        86349396
1456972477000: system.switch_cpus: Raw Gem5 Running in Cycle:        35300000, Inst:        86640556
1457022477000: system.switch_cpus: Raw Gem5 Running in Cycle:        35400000, Inst:        86934707
1457072477000: system.switch_cpus: Raw Gem5 Running in Cycle:        35500000, Inst:        87228277
1457122477000: system.switch_cpus: Raw Gem5 Running in Cycle:        35600000, Inst:        87519716
1457172477000: system.switch_cpus: Raw Gem5 Running in Cycle:        35700000, Inst:        87814932
1457222477000: system.switch_cpus: Raw Gem5 Running in Cycle:        35800000, Inst:        88107236
1457272477000: system.switch_cpus: Raw Gem5 Running in Cycle:        35900000, Inst:        88400417
1457322477000: system.switch_cpus: Raw Gem5 Running in Cycle:        36000000, Inst:        88693965
1457372477000: system.switch_cpus: Raw Gem5 Running in Cycle:        36100000, Inst:        88988392
1457422477000: system.switch_cpus: Raw Gem5 Running in Cycle:        36200000, Inst:        89280146
1457472477000: system.switch_cpus: Raw Gem5 Running in Cycle:        36300000, Inst:        89575077
1457522477000: system.switch_cpus: Raw Gem5 Running in Cycle:        36400000, Inst:        89866605
1457572477000: system.switch_cpus: Raw Gem5 Running in Cycle:        36500000, Inst:        90158912
1457622477000: system.switch_cpus: Raw Gem5 Running in Cycle:        36600000, Inst:        90452123
1457672477000: system.switch_cpus: Raw Gem5 Running in Cycle:        36700000, Inst:        90742956
1457722477000: system.switch_cpus: Raw Gem5 Running in Cycle:        36800000, Inst:        91037899
1457772477000: system.switch_cpus: Raw Gem5 Running in Cycle:        36900000, Inst:        91330907
1457822477000: system.switch_cpus: Raw Gem5 Running in Cycle:        37000000, Inst:        91626282
1457872477000: system.switch_cpus: Raw Gem5 Running in Cycle:        37100000, Inst:        91919387
1457922477000: system.switch_cpus: Raw Gem5 Running in Cycle:        37200000, Inst:        92208887
1457972477000: system.switch_cpus: Raw Gem5 Running in Cycle:        37300000, Inst:        92437012
1458022477000: system.switch_cpus: Raw Gem5 Running in Cycle:        37400000, Inst:        92665300
1458072477000: system.switch_cpus: Raw Gem5 Running in Cycle:        37500000, Inst:        92893607
1458122477000: system.switch_cpus: Raw Gem5 Running in Cycle:        37600000, Inst:        93121887
1458172477000: system.switch_cpus: Raw Gem5 Running in Cycle:        37700000, Inst:        93351307
1458222477000: system.switch_cpus: Raw Gem5 Running in Cycle:        37800000, Inst:        93578907
1458272477000: system.switch_cpus: Raw Gem5 Running in Cycle:        37900000, Inst:        93804787
1458322477000: system.switch_cpus: Raw Gem5 Running in Cycle:        38000000, Inst:        94033088
1458372477000: system.switch_cpus: Raw Gem5 Running in Cycle:        38100000, Inst:        94261376
1458422477000: system.switch_cpus: Raw Gem5 Running in Cycle:        38200000, Inst:        94489675
1458472477000: system.switch_cpus: Raw Gem5 Running in Cycle:        38300000, Inst:        94717859
1458522477000: system.switch_cpus: Raw Gem5 Running in Cycle:        38400000, Inst:        94946188
1458572477000: system.switch_cpus: Raw Gem5 Running in Cycle:        38500000, Inst:        95192256
1458622477000: system.switch_cpus: Raw Gem5 Running in Cycle:        38600000, Inst:        95482092
1458672477000: system.switch_cpus: Raw Gem5 Running in Cycle:        38700000, Inst:        95776073
1458722477000: system.switch_cpus: Raw Gem5 Running in Cycle:        38800000, Inst:        96071553
1458772477000: system.switch_cpus: Raw Gem5 Running in Cycle:        38900000, Inst:        96364357
1458822477000: system.switch_cpus: Raw Gem5 Running in Cycle:        39000000, Inst:        96657001
1458872477000: system.switch_cpus: Raw Gem5 Running in Cycle:        39100000, Inst:        96951723
1458922477000: system.switch_cpus: Raw Gem5 Running in Cycle:        39200000, Inst:        97243619
1458972477000: system.switch_cpus: Raw Gem5 Running in Cycle:        39300000, Inst:        97537567
1459022477000: system.switch_cpus: Raw Gem5 Running in Cycle:        39400000, Inst:        97829802
1459072477000: system.switch_cpus: Raw Gem5 Running in Cycle:        39500000, Inst:        98121735
1459122477000: system.switch_cpus: Raw Gem5 Running in Cycle:        39600000, Inst:        98416420
1459172477000: system.switch_cpus: Raw Gem5 Running in Cycle:        39700000, Inst:        98711684
1459222477000: system.switch_cpus: Raw Gem5 Running in Cycle:        39800000, Inst:        99003069
1459272477000: system.switch_cpus: Raw Gem5 Running in Cycle:        39900000, Inst:        99296031
1459322477000: system.switch_cpus: Raw Gem5 Running in Cycle:        40000000, Inst:        99587993
1459372477000: system.switch_cpus: Raw Gem5 Running in Cycle:        40100000, Inst:        99879928
Exiting @ tick 1459392860500 because a thread reached the max instruction count
end time:(year-mon-day hour-minute-second)19-03-31 00-02-46
