
******************************directory****************************
spec_dir: /home/cuihongwei/experiment/mcpat-gem5-master/spec2006/benchspec/CPU2006
run_dir:  /home/cuihongwei/experiment/mcpat-gem5-master/spec2006/benchspec/CPU2006/447.dealII/run/run_base_ref_amd64.0001
gem5_dir: /home/cuihongwei/experiment/experiment-gem5/raw-gem5
gem5_output_dir: /home/cuihongwei/experiment/experiment-gem5/raw-gem5/output/447.dealII/alpha-OLD-447.dealII-input1-190330-231641
benchmark_output:/home/cuihongwei/experiment/experiment-gem5/raw-gem5/output/447.dealII/alpha-OLD-447.dealII-input1-190330-231641
checkpoint_dir:/home/cuihongwei/experiment/experiment-gem5/pubs-gem5/output/alpha-447.dealII-checkpoint-input1

******************************benchmark****************************
target:     447.dealII
executable: dealII
args:       23
input:      
output:     /home/cuihongwei/experiment/experiment-gem5/raw-gem5/output/447.dealII/alpha-OLD-447.dealII-input1-190330-231641/log
errout:     /home/cuihongwei/experiment/experiment-gem5/raw-gem5/output/447.dealII/alpha-OLD-447.dealII-input1-190330-231641/dealII.err

******************************gem5****************************
arch:       /home/cuihongwei/experiment/experiment-gem5/raw-gem5/build/ALPHA/gem5.opt
config:     /home/cuihongwei/experiment/experiment-gem5/raw-gem5/configs/example/se.py
args:       --num-cpus=1 --mem-size=8GB --caches --l1d_size=32kB --l1d_assoc=8 --l1i_size=32kB --l1i_assoc=8 --l2cache --l2_size=2MB --l2_assoc=16 --at-instruction --checkpoint-restore=5000000000 --maxinsts=100000000 --cpu-type=DerivO3CPU
debugFlag:  --debug-flags=ShowRunning

******************************simulation****************************
start time:(year-mon-day hour-minute-second)19-03-30 23-16-41
gem5 Simulator System.  http://gem5.org
gem5 is copyrighted software; use the --copyright option for details.

gem5 compiled Mar 30 2019 20:24:53
gem5 started Mar 30 2019 23:16:41
gem5 executing on mprc-R730, pid 14306
command line: /home/cuihongwei/experiment/experiment-gem5/raw-gem5/build/ALPHA/gem5.opt --outdir=/home/cuihongwei/experiment/experiment-gem5/raw-gem5/output/447.dealII/alpha-OLD-447.dealII-input1-190330-231641 --debug-flags=ShowRunning /home/cuihongwei/experiment/experiment-gem5/raw-gem5/configs/example/se.py --num-cpus=1 --mem-size=8GB --caches --l1d_size=32kB --l1d_assoc=8 --l1i_size=32kB --l1i_assoc=8 --l2cache --l2_size=2MB --l2_assoc=16 --at-instruction --checkpoint-restore=5000000000 --maxinsts=100000000 --cpu-type=DerivO3CPU --checkpoint-dir=/home/cuihongwei/experiment/experiment-gem5/pubs-gem5/output/alpha-447.dealII-checkpoint-input1 --cmd=/home/cuihongwei/experiment/mcpat-gem5-master/spec2006/benchspec/CPU2006/447.dealII/run/build_peak_alpha.0001/dealII --options=23 --output=/home/cuihongwei/experiment/experiment-gem5/raw-gem5/output/447.dealII/alpha-OLD-447.dealII-input1-190330-231641/log --input= --errout=/home/cuihongwei/experiment/experiment-gem5/raw-gem5/output/447.dealII/alpha-OLD-447.dealII-input1-190330-231641/dealII.err

Global frequency set at 1000000000000 ticks per second
Switch at curTick count:10000
Switched CPUS @ tick 1519510244000
switching cpus
**** REAL SIMULATION ****
1519510244500: system.switch_cpus: Raw Gem5 Running in Cycle:               0, Inst:               0
1519560930000: system.switch_cpus: Raw Gem5 Running in Cycle:          100000, Inst:           87552
1519610930000: system.switch_cpus: Raw Gem5 Running in Cycle:          200000, Inst:          175890
1519660930000: system.switch_cpus: Raw Gem5 Running in Cycle:          300000, Inst:          263449
1519710930000: system.switch_cpus: Raw Gem5 Running in Cycle:          400000, Inst:          352416
1519760930000: system.switch_cpus: Raw Gem5 Running in Cycle:          500000, Inst:          441135
1519810930000: system.switch_cpus: Raw Gem5 Running in Cycle:          600000, Inst:          530149
1519860930000: system.switch_cpus: Raw Gem5 Running in Cycle:          700000, Inst:          618536
1519910930000: system.switch_cpus: Raw Gem5 Running in Cycle:          800000, Inst:          707054
1519960930000: system.switch_cpus: Raw Gem5 Running in Cycle:          900000, Inst:          795684
1520010930000: system.switch_cpus: Raw Gem5 Running in Cycle:         1000000, Inst:          885157
1520060930000: system.switch_cpus: Raw Gem5 Running in Cycle:         1100000, Inst:          976722
1520110930000: system.switch_cpus: Raw Gem5 Running in Cycle:         1200000, Inst:         1067085
1520160930000: system.switch_cpus: Raw Gem5 Running in Cycle:         1300000, Inst:         1157994
1520210930000: system.switch_cpus: Raw Gem5 Running in Cycle:         1400000, Inst:         1249469
1520260930000: system.switch_cpus: Raw Gem5 Running in Cycle:         1500000, Inst:         1339702
1520311245500: system.switch_cpus: Raw Gem5 Running in Cycle:         1600000, Inst:         1425480
1520361245500: system.switch_cpus: Raw Gem5 Running in Cycle:         1700000, Inst:         1548079
1520411245500: system.switch_cpus: Raw Gem5 Running in Cycle:         1800000, Inst:         1751587
1520461245500: system.switch_cpus: Raw Gem5 Running in Cycle:         1900000, Inst:         2087754
1520511245500: system.switch_cpus: Raw Gem5 Running in Cycle:         2000000, Inst:         2423619
1520561245500: system.switch_cpus: Raw Gem5 Running in Cycle:         2100000, Inst:         2756185
1520611245500: system.switch_cpus: Raw Gem5 Running in Cycle:         2200000, Inst:         3095846
1520661245500: system.switch_cpus: Raw Gem5 Running in Cycle:         2300000, Inst:         3428972
1520711245500: system.switch_cpus: Raw Gem5 Running in Cycle:         2400000, Inst:         3767981
1520761245500: system.switch_cpus: Raw Gem5 Running in Cycle:         2500000, Inst:         4101084
1520811245500: system.switch_cpus: Raw Gem5 Running in Cycle:         2600000, Inst:         4440214
1520861245500: system.switch_cpus: Raw Gem5 Running in Cycle:         2700000, Inst:         4773309
1520911245500: system.switch_cpus: Raw Gem5 Running in Cycle:         2800000, Inst:         5113096
1520961245500: system.switch_cpus: Raw Gem5 Running in Cycle:         2900000, Inst:         5445581
1521011245500: system.switch_cpus: Raw Gem5 Running in Cycle:         3000000, Inst:         5784987
1521061245500: system.switch_cpus: Raw Gem5 Running in Cycle:         3100000, Inst:         6116560
1521111245500: system.switch_cpus: Raw Gem5 Running in Cycle:         3200000, Inst:         6456177
1521161245500: system.switch_cpus: Raw Gem5 Running in Cycle:         3300000, Inst:         6789122
1521211245500: system.switch_cpus: Raw Gem5 Running in Cycle:         3400000, Inst:         7128779
1521261245500: system.switch_cpus: Raw Gem5 Running in Cycle:         3500000, Inst:         7461054
1521311245500: system.switch_cpus: Raw Gem5 Running in Cycle:         3600000, Inst:         7800684
1521361245500: system.switch_cpus: Raw Gem5 Running in Cycle:         3700000, Inst:         8132450
1521411245500: system.switch_cpus: Raw Gem5 Running in Cycle:         3800000, Inst:         8472086
1521461245500: system.switch_cpus: Raw Gem5 Running in Cycle:         3900000, Inst:         8805212
1521511245500: system.switch_cpus: Raw Gem5 Running in Cycle:         4000000, Inst:         9144255
1521561245500: system.switch_cpus: Raw Gem5 Running in Cycle:         4100000, Inst:         9477044
1521611245500: system.switch_cpus: Raw Gem5 Running in Cycle:         4200000, Inst:         9814473
1521661245500: system.switch_cpus: Raw Gem5 Running in Cycle:         4300000, Inst:        10147914
1521711245500: system.switch_cpus: Raw Gem5 Running in Cycle:         4400000, Inst:        10480827
1521761245500: system.switch_cpus: Raw Gem5 Running in Cycle:         4500000, Inst:        10820013
1521811245500: system.switch_cpus: Raw Gem5 Running in Cycle:         4600000, Inst:        11152763
1521861245500: system.switch_cpus: Raw Gem5 Running in Cycle:         4700000, Inst:        11491943
1521911245500: system.switch_cpus: Raw Gem5 Running in Cycle:         4800000, Inst:        11824957
1521961245500: system.switch_cpus: Raw Gem5 Running in Cycle:         4900000, Inst:        12163272
1522011245500: system.switch_cpus: Raw Gem5 Running in Cycle:         5000000, Inst:        12495715
1522061245500: system.switch_cpus: Raw Gem5 Running in Cycle:         5100000, Inst:        12835161
1522111245500: system.switch_cpus: Raw Gem5 Running in Cycle:         5200000, Inst:        13167617
1522161245500: system.switch_cpus: Raw Gem5 Running in Cycle:         5300000, Inst:        13507290
1522211245500: system.switch_cpus: Raw Gem5 Running in Cycle:         5400000, Inst:        13840377
1522261245500: system.switch_cpus: Raw Gem5 Running in Cycle:         5500000, Inst:        14178664
1522311245500: system.switch_cpus: Raw Gem5 Running in Cycle:         5600000, Inst:        14511244
1522361245500: system.switch_cpus: Raw Gem5 Running in Cycle:         5700000, Inst:        14853049
1522411245500: system.switch_cpus: Raw Gem5 Running in Cycle:         5800000, Inst:        15185012
1522461245500: system.switch_cpus: Raw Gem5 Running in Cycle:         5900000, Inst:        15524221
1522511245500: system.switch_cpus: Raw Gem5 Running in Cycle:         6000000, Inst:        15856258
1522561245500: system.switch_cpus: Raw Gem5 Running in Cycle:         6100000, Inst:        16195328
1522611245500: system.switch_cpus: Raw Gem5 Running in Cycle:         6200000, Inst:        16527111
1522661245500: system.switch_cpus: Raw Gem5 Running in Cycle:         6300000, Inst:        16866431
1522711245500: system.switch_cpus: Raw Gem5 Running in Cycle:         6400000, Inst:        17198314
1522761245500: system.switch_cpus: Raw Gem5 Running in Cycle:         6500000, Inst:        17537371
1522811245500: system.switch_cpus: Raw Gem5 Running in Cycle:         6600000, Inst:        17867807
1522861245500: system.switch_cpus: Raw Gem5 Running in Cycle:         6700000, Inst:        18202935
1522911245500: system.switch_cpus: Raw Gem5 Running in Cycle:         6800000, Inst:        18538660
1522961245500: system.switch_cpus: Raw Gem5 Running in Cycle:         6900000, Inst:        18870733
1523011245500: system.switch_cpus: Raw Gem5 Running in Cycle:         7000000, Inst:        19209905
1523061245500: system.switch_cpus: Raw Gem5 Running in Cycle:         7100000, Inst:        19541950
1523111245500: system.switch_cpus: Raw Gem5 Running in Cycle:         7200000, Inst:        19881161
1523161245500: system.switch_cpus: Raw Gem5 Running in Cycle:         7300000, Inst:        20213114
1523211245500: system.switch_cpus: Raw Gem5 Running in Cycle:         7400000, Inst:        20552171
1523261245500: system.switch_cpus: Raw Gem5 Running in Cycle:         7500000, Inst:        20884272
1523311245500: system.switch_cpus: Raw Gem5 Running in Cycle:         7600000, Inst:        21223346
1523361245500: system.switch_cpus: Raw Gem5 Running in Cycle:         7700000, Inst:        21555379
1523411245500: system.switch_cpus: Raw Gem5 Running in Cycle:         7800000, Inst:        21894366
1523461245500: system.switch_cpus: Raw Gem5 Running in Cycle:         7900000, Inst:        22226370
1523511245500: system.switch_cpus: Raw Gem5 Running in Cycle:         8000000, Inst:        22564070
1523561245500: system.switch_cpus: Raw Gem5 Running in Cycle:         8100000, Inst:        22896227
1523611245500: system.switch_cpus: Raw Gem5 Running in Cycle:         8200000, Inst:        23235413
1523661245500: system.switch_cpus: Raw Gem5 Running in Cycle:         8300000, Inst:        23567447
1523711245500: system.switch_cpus: Raw Gem5 Running in Cycle:         8400000, Inst:        23906434
1523761245500: system.switch_cpus: Raw Gem5 Running in Cycle:         8500000, Inst:        24238327
1523811245500: system.switch_cpus: Raw Gem5 Running in Cycle:         8600000, Inst:        24577637
1523861245500: system.switch_cpus: Raw Gem5 Running in Cycle:         8700000, Inst:        24909656
1523911245500: system.switch_cpus: Raw Gem5 Running in Cycle:         8800000, Inst:        25248753
1523961245500: system.switch_cpus: Raw Gem5 Running in Cycle:         8900000, Inst:        25578940
1524011245500: system.switch_cpus: Raw Gem5 Running in Cycle:         9000000, Inst:        25918081
1524061245500: system.switch_cpus: Raw Gem5 Running in Cycle:         9100000, Inst:        26250168
1524111245500: system.switch_cpus: Raw Gem5 Running in Cycle:         9200000, Inst:        26589340
1524161245500: system.switch_cpus: Raw Gem5 Running in Cycle:         9300000, Inst:        26921387
1524211245500: system.switch_cpus: Raw Gem5 Running in Cycle:         9400000, Inst:        27254708
1524261245500: system.switch_cpus: Raw Gem5 Running in Cycle:         9500000, Inst:        27598669
1524311245500: system.switch_cpus: Raw Gem5 Running in Cycle:         9600000, Inst:        27944848
1524361245500: system.switch_cpus: Raw Gem5 Running in Cycle:         9700000, Inst:        28291067
1524411245500: system.switch_cpus: Raw Gem5 Running in Cycle:         9800000, Inst:        28637226
1524461245500: system.switch_cpus: Raw Gem5 Running in Cycle:         9900000, Inst:        28983459
1524512518000: system.switch_cpus: Raw Gem5 Running in Cycle:        10000000, Inst:        29226671
1524562518000: system.switch_cpus: Raw Gem5 Running in Cycle:        10100000, Inst:        29323278
1524612518000: system.switch_cpus: Raw Gem5 Running in Cycle:        10200000, Inst:        29420060
1524662518000: system.switch_cpus: Raw Gem5 Running in Cycle:        10300000, Inst:        29516642
1524712518000: system.switch_cpus: Raw Gem5 Running in Cycle:        10400000, Inst:        29613415
1524762518000: system.switch_cpus: Raw Gem5 Running in Cycle:        10500000, Inst:        29710192
1524812518000: system.switch_cpus: Raw Gem5 Running in Cycle:        10600000, Inst:        29806939
1524862518000: system.switch_cpus: Raw Gem5 Running in Cycle:        10700000, Inst:        29903507
1524912518000: system.switch_cpus: Raw Gem5 Running in Cycle:        10800000, Inst:        30000059
1524962518000: system.switch_cpus: Raw Gem5 Running in Cycle:        10900000, Inst:        30096779
1525012518000: system.switch_cpus: Raw Gem5 Running in Cycle:        11000000, Inst:        30193356
1525062518000: system.switch_cpus: Raw Gem5 Running in Cycle:        11100000, Inst:        30289845
1525112518000: system.switch_cpus: Raw Gem5 Running in Cycle:        11200000, Inst:        30386587
1525162518000: system.switch_cpus: Raw Gem5 Running in Cycle:        11300000, Inst:        30483000
1525212518000: system.switch_cpus: Raw Gem5 Running in Cycle:        11400000, Inst:        30579504
1525262518000: system.switch_cpus: Raw Gem5 Running in Cycle:        11500000, Inst:        30676232
1525312518000: system.switch_cpus: Raw Gem5 Running in Cycle:        11600000, Inst:        30772947
1525362518000: system.switch_cpus: Raw Gem5 Running in Cycle:        11700000, Inst:        30869528
1525412518000: system.switch_cpus: Raw Gem5 Running in Cycle:        11800000, Inst:        30966148
1525462518000: system.switch_cpus: Raw Gem5 Running in Cycle:        11900000, Inst:        31062867
1525512518000: system.switch_cpus: Raw Gem5 Running in Cycle:        12000000, Inst:        31159475
1525562518000: system.switch_cpus: Raw Gem5 Running in Cycle:        12100000, Inst:        31256080
1525612518000: system.switch_cpus: Raw Gem5 Running in Cycle:        12200000, Inst:        31352750
1525662518000: system.switch_cpus: Raw Gem5 Running in Cycle:        12300000, Inst:        31449308
1525712518000: system.switch_cpus: Raw Gem5 Running in Cycle:        12400000, Inst:        31546058
1525762518000: system.switch_cpus: Raw Gem5 Running in Cycle:        12500000, Inst:        31642629
1525812518000: system.switch_cpus: Raw Gem5 Running in Cycle:        12600000, Inst:        31739389
1525862518000: system.switch_cpus: Raw Gem5 Running in Cycle:        12700000, Inst:        31836064
1525912518000: system.switch_cpus: Raw Gem5 Running in Cycle:        12800000, Inst:        31932673
1525962518000: system.switch_cpus: Raw Gem5 Running in Cycle:        12900000, Inst:        32029370
1526012518000: system.switch_cpus: Raw Gem5 Running in Cycle:        13000000, Inst:        32126035
1526062518000: system.switch_cpus: Raw Gem5 Running in Cycle:        13100000, Inst:        32222746
1526112518000: system.switch_cpus: Raw Gem5 Running in Cycle:        13200000, Inst:        32319078
1526162518000: system.switch_cpus: Raw Gem5 Running in Cycle:        13300000, Inst:        32415879
1526212518000: system.switch_cpus: Raw Gem5 Running in Cycle:        13400000, Inst:        32512474
1526262518000: system.switch_cpus: Raw Gem5 Running in Cycle:        13500000, Inst:        32608857
1526312518000: system.switch_cpus: Raw Gem5 Running in Cycle:        13600000, Inst:        32705209
1526362518000: system.switch_cpus: Raw Gem5 Running in Cycle:        13700000, Inst:        32801930
1526412518000: system.switch_cpus: Raw Gem5 Running in Cycle:        13800000, Inst:        32898641
1526462518000: system.switch_cpus: Raw Gem5 Running in Cycle:        13900000, Inst:        32995118
1526512518000: system.switch_cpus: Raw Gem5 Running in Cycle:        14000000, Inst:        33091735
1526562518000: system.switch_cpus: Raw Gem5 Running in Cycle:        14100000, Inst:        33188293
1526612518000: system.switch_cpus: Raw Gem5 Running in Cycle:        14200000, Inst:        33284229
1526662518000: system.switch_cpus: Raw Gem5 Running in Cycle:        14300000, Inst:        33380860
1526712518000: system.switch_cpus: Raw Gem5 Running in Cycle:        14400000, Inst:        33477415
1526762518000: system.switch_cpus: Raw Gem5 Running in Cycle:        14500000, Inst:        33573977
1526812518000: system.switch_cpus: Raw Gem5 Running in Cycle:        14600000, Inst:        33670568
1526862518000: system.switch_cpus: Raw Gem5 Running in Cycle:        14700000, Inst:        33767079
1526912518000: system.switch_cpus: Raw Gem5 Running in Cycle:        14800000, Inst:        33863578
1526962518000: system.switch_cpus: Raw Gem5 Running in Cycle:        14900000, Inst:        33959947
1527012518000: system.switch_cpus: Raw Gem5 Running in Cycle:        15000000, Inst:        34056323
1527062518000: system.switch_cpus: Raw Gem5 Running in Cycle:        15100000, Inst:        34152846
1527112518000: system.switch_cpus: Raw Gem5 Running in Cycle:        15200000, Inst:        34249522
1527162518000: system.switch_cpus: Raw Gem5 Running in Cycle:        15300000, Inst:        34346052
1527212518000: system.switch_cpus: Raw Gem5 Running in Cycle:        15400000, Inst:        34442420
1527262518000: system.switch_cpus: Raw Gem5 Running in Cycle:        15500000, Inst:        34538893
1527312518000: system.switch_cpus: Raw Gem5 Running in Cycle:        15600000, Inst:        34635299
1527362518000: system.switch_cpus: Raw Gem5 Running in Cycle:        15700000, Inst:        34731769
1527412518000: system.switch_cpus: Raw Gem5 Running in Cycle:        15800000, Inst:        34828272
1527462518000: system.switch_cpus: Raw Gem5 Running in Cycle:        15900000, Inst:        34924853
1527512518000: system.switch_cpus: Raw Gem5 Running in Cycle:        16000000, Inst:        35021399
1527562518000: system.switch_cpus: Raw Gem5 Running in Cycle:        16100000, Inst:        35117920
1527612518000: system.switch_cpus: Raw Gem5 Running in Cycle:        16200000, Inst:        35214395
1527662518000: system.switch_cpus: Raw Gem5 Running in Cycle:        16300000, Inst:        35310602
1527712518000: system.switch_cpus: Raw Gem5 Running in Cycle:        16400000, Inst:        35406843
1527762518000: system.switch_cpus: Raw Gem5 Running in Cycle:        16500000, Inst:        35503366
1527812518000: system.switch_cpus: Raw Gem5 Running in Cycle:        16600000, Inst:        35600155
1527862518000: system.switch_cpus: Raw Gem5 Running in Cycle:        16700000, Inst:        35696475
1527912518000: system.switch_cpus: Raw Gem5 Running in Cycle:        16800000, Inst:        35793079
1527962518000: system.switch_cpus: Raw Gem5 Running in Cycle:        16900000, Inst:        35889462
1528012518000: system.switch_cpus: Raw Gem5 Running in Cycle:        17000000, Inst:        35985735
1528062518000: system.switch_cpus: Raw Gem5 Running in Cycle:        17100000, Inst:        36082116
1528112518000: system.switch_cpus: Raw Gem5 Running in Cycle:        17200000, Inst:        36178694
1528162518000: system.switch_cpus: Raw Gem5 Running in Cycle:        17300000, Inst:        36275392
1528212518000: system.switch_cpus: Raw Gem5 Running in Cycle:        17400000, Inst:        36371902
1528262518000: system.switch_cpus: Raw Gem5 Running in Cycle:        17500000, Inst:        36468461
1528312518000: system.switch_cpus: Raw Gem5 Running in Cycle:        17600000, Inst:        36564788
1528362518000: system.switch_cpus: Raw Gem5 Running in Cycle:        17700000, Inst:        36661430
1528412518000: system.switch_cpus: Raw Gem5 Running in Cycle:        17800000, Inst:        36757762
1528462518000: system.switch_cpus: Raw Gem5 Running in Cycle:        17900000, Inst:        36854282
1528512518000: system.switch_cpus: Raw Gem5 Running in Cycle:        18000000, Inst:        36950775
1528562518000: system.switch_cpus: Raw Gem5 Running in Cycle:        18100000, Inst:        37047201
1528612518000: system.switch_cpus: Raw Gem5 Running in Cycle:        18200000, Inst:        37143770
1528662518000: system.switch_cpus: Raw Gem5 Running in Cycle:        18300000, Inst:        37240324
1528712518000: system.switch_cpus: Raw Gem5 Running in Cycle:        18400000, Inst:        37336678
1528762518000: system.switch_cpus: Raw Gem5 Running in Cycle:        18500000, Inst:        37433183
1528812518000: system.switch_cpus: Raw Gem5 Running in Cycle:        18600000, Inst:        37529600
1528862518000: system.switch_cpus: Raw Gem5 Running in Cycle:        18700000, Inst:        37626348
1528912518000: system.switch_cpus: Raw Gem5 Running in Cycle:        18800000, Inst:        37722840
1528962518000: system.switch_cpus: Raw Gem5 Running in Cycle:        18900000, Inst:        37819314
1529012518000: system.switch_cpus: Raw Gem5 Running in Cycle:        19000000, Inst:        37915670
1529062518000: system.switch_cpus: Raw Gem5 Running in Cycle:        19100000, Inst:        38012334
1529112518000: system.switch_cpus: Raw Gem5 Running in Cycle:        19200000, Inst:        38108747
1529162518000: system.switch_cpus: Raw Gem5 Running in Cycle:        19300000, Inst:        38205395
1529212518000: system.switch_cpus: Raw Gem5 Running in Cycle:        19400000, Inst:        38301866
1529262518000: system.switch_cpus: Raw Gem5 Running in Cycle:        19500000, Inst:        38398197
1529312518000: system.switch_cpus: Raw Gem5 Running in Cycle:        19600000, Inst:        38494878
1529362518000: system.switch_cpus: Raw Gem5 Running in Cycle:        19700000, Inst:        38591462
1529412518000: system.switch_cpus: Raw Gem5 Running in Cycle:        19800000, Inst:        38884904
1529462518000: system.switch_cpus: Raw Gem5 Running in Cycle:        19900000, Inst:        39231137
1529512518000: system.switch_cpus: Raw Gem5 Running in Cycle:        20000000, Inst:        39577338
1529562518000: system.switch_cpus: Raw Gem5 Running in Cycle:        20100000, Inst:        39923557
1529612518000: system.switch_cpus: Raw Gem5 Running in Cycle:        20200000, Inst:        40269694
1529662518000: system.switch_cpus: Raw Gem5 Running in Cycle:        20300000, Inst:        40615715
1529712518000: system.switch_cpus: Raw Gem5 Running in Cycle:        20400000, Inst:        40961934
1529762518000: system.switch_cpus: Raw Gem5 Running in Cycle:        20500000, Inst:        41308133
1529812518000: system.switch_cpus: Raw Gem5 Running in Cycle:        20600000, Inst:        41654366
1529862518000: system.switch_cpus: Raw Gem5 Running in Cycle:        20700000, Inst:        42000531
1529912518000: system.switch_cpus: Raw Gem5 Running in Cycle:        20800000, Inst:        42346585
1529962518000: system.switch_cpus: Raw Gem5 Running in Cycle:        20900000, Inst:        42692772
1530012518000: system.switch_cpus: Raw Gem5 Running in Cycle:        21000000, Inst:        43038909
1530062518000: system.switch_cpus: Raw Gem5 Running in Cycle:        21100000, Inst:        43385142
1530112518000: system.switch_cpus: Raw Gem5 Running in Cycle:        21200000, Inst:        43731360
1530162518000: system.switch_cpus: Raw Gem5 Running in Cycle:        21300000, Inst:        44077590
1530212518000: system.switch_cpus: Raw Gem5 Running in Cycle:        21400000, Inst:        44423581
1530262518000: system.switch_cpus: Raw Gem5 Running in Cycle:        21500000, Inst:        44769814
1530312518000: system.switch_cpus: Raw Gem5 Running in Cycle:        21600000, Inst:        45115965
1530362518000: system.switch_cpus: Raw Gem5 Running in Cycle:        21700000, Inst:        45462138
1530412518000: system.switch_cpus: Raw Gem5 Running in Cycle:        21800000, Inst:        45808371
1530462518000: system.switch_cpus: Raw Gem5 Running in Cycle:        21900000, Inst:        46154343
1530512518000: system.switch_cpus: Raw Gem5 Running in Cycle:        22000000, Inst:        46500576
1530562518000: system.switch_cpus: Raw Gem5 Running in Cycle:        22100000, Inst:        46846794
1530612518000: system.switch_cpus: Raw Gem5 Running in Cycle:        22200000, Inst:        47193024
1530662518000: system.switch_cpus: Raw Gem5 Running in Cycle:        22300000, Inst:        47539160
1530712518000: system.switch_cpus: Raw Gem5 Running in Cycle:        22400000, Inst:        47885180
1530762518000: system.switch_cpus: Raw Gem5 Running in Cycle:        22500000, Inst:        48231399
1530812518000: system.switch_cpus: Raw Gem5 Running in Cycle:        22600000, Inst:        48577558
1530862518000: system.switch_cpus: Raw Gem5 Running in Cycle:        22700000, Inst:        48923791
1530912518000: system.switch_cpus: Raw Gem5 Running in Cycle:        22800000, Inst:        49269998
1530962518000: system.switch_cpus: Raw Gem5 Running in Cycle:        22900000, Inst:        49615996
1531012518000: system.switch_cpus: Raw Gem5 Running in Cycle:        23000000, Inst:        49962214
1531062518000: system.switch_cpus: Raw Gem5 Running in Cycle:        23100000, Inst:        50308447
1531112518000: system.switch_cpus: Raw Gem5 Running in Cycle:        23200000, Inst:        50654592
1531162518000: system.switch_cpus: Raw Gem5 Running in Cycle:        23300000, Inst:        51000771
1531212518000: system.switch_cpus: Raw Gem5 Running in Cycle:        23400000, Inst:        51346833
1531262518000: system.switch_cpus: Raw Gem5 Running in Cycle:        23500000, Inst:        51692978
1531312518000: system.switch_cpus: Raw Gem5 Running in Cycle:        23600000, Inst:        52039211
1531362518000: system.switch_cpus: Raw Gem5 Running in Cycle:        23700000, Inst:        52385429
1531412518000: system.switch_cpus: Raw Gem5 Running in Cycle:        23800000, Inst:        52731651
1531462518000: system.switch_cpus: Raw Gem5 Running in Cycle:        23900000, Inst:        53077787
1531512518000: system.switch_cpus: Raw Gem5 Running in Cycle:        24000000, Inst:        53423807
1531562518000: system.switch_cpus: Raw Gem5 Running in Cycle:        24100000, Inst:        53770026
1531612518000: system.switch_cpus: Raw Gem5 Running in Cycle:        24200000, Inst:        54116191
1531662518000: system.switch_cpus: Raw Gem5 Running in Cycle:        24300000, Inst:        54462424
1531712518000: system.switch_cpus: Raw Gem5 Running in Cycle:        24400000, Inst:        54808625
1531762518000: system.switch_cpus: Raw Gem5 Running in Cycle:        24500000, Inst:        55154622
1531812518000: system.switch_cpus: Raw Gem5 Running in Cycle:        24600000, Inst:        55500827
1531862518000: system.switch_cpus: Raw Gem5 Running in Cycle:        24700000, Inst:        55847000
1531912518000: system.switch_cpus: Raw Gem5 Running in Cycle:        24800000, Inst:        56193219
1531962518000: system.switch_cpus: Raw Gem5 Running in Cycle:        24900000, Inst:        56539384
1532012518000: system.switch_cpus: Raw Gem5 Running in Cycle:        25000000, Inst:        56885460
1532062518000: system.switch_cpus: Raw Gem5 Running in Cycle:        25100000, Inst:        57231596
1532112518000: system.switch_cpus: Raw Gem5 Running in Cycle:        25200000, Inst:        57577815
1532162518000: system.switch_cpus: Raw Gem5 Running in Cycle:        25300000, Inst:        57924020
1532212518000: system.switch_cpus: Raw Gem5 Running in Cycle:        25400000, Inst:        58270193
1532262518000: system.switch_cpus: Raw Gem5 Running in Cycle:        25500000, Inst:        58616205
1532312518000: system.switch_cpus: Raw Gem5 Running in Cycle:        25600000, Inst:        58962423
1532362518000: system.switch_cpus: Raw Gem5 Running in Cycle:        25700000, Inst:        59308653
1532412518000: system.switch_cpus: Raw Gem5 Running in Cycle:        25800000, Inst:        59654789
1532462518000: system.switch_cpus: Raw Gem5 Running in Cycle:        25900000, Inst:        60001008
1532512518000: system.switch_cpus: Raw Gem5 Running in Cycle:        26000000, Inst:        60347213
1532562518000: system.switch_cpus: Raw Gem5 Running in Cycle:        26100000, Inst:        60692268
1532612518000: system.switch_cpus: Raw Gem5 Running in Cycle:        26200000, Inst:        61038487
1532662518000: system.switch_cpus: Raw Gem5 Running in Cycle:        26300000, Inst:        61384686
1532712518000: system.switch_cpus: Raw Gem5 Running in Cycle:        26400000, Inst:        61730919
1532762518000: system.switch_cpus: Raw Gem5 Running in Cycle:        26500000, Inst:        62077084
1532812518000: system.switch_cpus: Raw Gem5 Running in Cycle:        26600000, Inst:        62422824
1532862518000: system.switch_cpus: Raw Gem5 Running in Cycle:        26700000, Inst:        62768989
1532912518000: system.switch_cpus: Raw Gem5 Running in Cycle:        26800000, Inst:        63115162
1532962518000: system.switch_cpus: Raw Gem5 Running in Cycle:        26900000, Inst:        63461395
1533012518000: system.switch_cpus: Raw Gem5 Running in Cycle:        27000000, Inst:        63807588
1533062518000: system.switch_cpus: Raw Gem5 Running in Cycle:        27100000, Inst:        64150079
1533112518000: system.switch_cpus: Raw Gem5 Running in Cycle:        27200000, Inst:        64496213
1533162518000: system.switch_cpus: Raw Gem5 Running in Cycle:        27300000, Inst:        64842432
1533212518000: system.switch_cpus: Raw Gem5 Running in Cycle:        27400000, Inst:        65188591
1533262518000: system.switch_cpus: Raw Gem5 Running in Cycle:        27500000, Inst:        65534824
1533312518000: system.switch_cpus: Raw Gem5 Running in Cycle:        27600000, Inst:        65880908
1533362518000: system.switch_cpus: Raw Gem5 Running in Cycle:        27700000, Inst:        66227364
1533412518000: system.switch_cpus: Raw Gem5 Running in Cycle:        27800000, Inst:        66429332
1533462518000: system.switch_cpus: Raw Gem5 Running in Cycle:        27900000, Inst:        66525907
1533512518000: system.switch_cpus: Raw Gem5 Running in Cycle:        28000000, Inst:        66622642
1533562518000: system.switch_cpus: Raw Gem5 Running in Cycle:        28100000, Inst:        66719360
1533612518000: system.switch_cpus: Raw Gem5 Running in Cycle:        28200000, Inst:        66816054
1533662518000: system.switch_cpus: Raw Gem5 Running in Cycle:        28300000, Inst:        66912853
1533712518000: system.switch_cpus: Raw Gem5 Running in Cycle:        28400000, Inst:        67009588
1533762518000: system.switch_cpus: Raw Gem5 Running in Cycle:        28500000, Inst:        67106158
1533812518000: system.switch_cpus: Raw Gem5 Running in Cycle:        28600000, Inst:        67202726
1533862518000: system.switch_cpus: Raw Gem5 Running in Cycle:        28700000, Inst:        67299348
1533912518000: system.switch_cpus: Raw Gem5 Running in Cycle:        28800000, Inst:        67396039
1533962518000: system.switch_cpus: Raw Gem5 Running in Cycle:        28900000, Inst:        67492710
1534012518000: system.switch_cpus: Raw Gem5 Running in Cycle:        29000000, Inst:        67589364
1534062518000: system.switch_cpus: Raw Gem5 Running in Cycle:        29100000, Inst:        67685910
1534112518000: system.switch_cpus: Raw Gem5 Running in Cycle:        29200000, Inst:        67782646
1534162518000: system.switch_cpus: Raw Gem5 Running in Cycle:        29300000, Inst:        67879260
1534212518000: system.switch_cpus: Raw Gem5 Running in Cycle:        29400000, Inst:        67975771
1534262518000: system.switch_cpus: Raw Gem5 Running in Cycle:        29500000, Inst:        68072424
1534312518000: system.switch_cpus: Raw Gem5 Running in Cycle:        29600000, Inst:        68169055
1534362518000: system.switch_cpus: Raw Gem5 Running in Cycle:        29700000, Inst:        68265852
1534412518000: system.switch_cpus: Raw Gem5 Running in Cycle:        29800000, Inst:        68362404
1534462518000: system.switch_cpus: Raw Gem5 Running in Cycle:        29900000, Inst:        68459136
1534512518000: system.switch_cpus: Raw Gem5 Running in Cycle:        30000000, Inst:        68555746
1534562518000: system.switch_cpus: Raw Gem5 Running in Cycle:        30100000, Inst:        68652286
1534612518000: system.switch_cpus: Raw Gem5 Running in Cycle:        30200000, Inst:        68748998
1534662518000: system.switch_cpus: Raw Gem5 Running in Cycle:        30300000, Inst:        68845588
1534712518000: system.switch_cpus: Raw Gem5 Running in Cycle:        30400000, Inst:        68942378
1534762518000: system.switch_cpus: Raw Gem5 Running in Cycle:        30500000, Inst:        69038888
1534812518000: system.switch_cpus: Raw Gem5 Running in Cycle:        30600000, Inst:        69135640
1534862518000: system.switch_cpus: Raw Gem5 Running in Cycle:        30700000, Inst:        69232234
1534912518000: system.switch_cpus: Raw Gem5 Running in Cycle:        30800000, Inst:        69328886
1534962518000: system.switch_cpus: Raw Gem5 Running in Cycle:        30900000, Inst:        69425583
1535012518000: system.switch_cpus: Raw Gem5 Running in Cycle:        31000000, Inst:        69522289
1535062518000: system.switch_cpus: Raw Gem5 Running in Cycle:        31100000, Inst:        69618925
1535112518000: system.switch_cpus: Raw Gem5 Running in Cycle:        31200000, Inst:        69715589
1535162518000: system.switch_cpus: Raw Gem5 Running in Cycle:        31300000, Inst:        69811959
1535212518000: system.switch_cpus: Raw Gem5 Running in Cycle:        31400000, Inst:        69908435
1535262518000: system.switch_cpus: Raw Gem5 Running in Cycle:        31500000, Inst:        70004931
1535312518000: system.switch_cpus: Raw Gem5 Running in Cycle:        31600000, Inst:        70101726
1535362518000: system.switch_cpus: Raw Gem5 Running in Cycle:        31700000, Inst:        70198257
1535412518000: system.switch_cpus: Raw Gem5 Running in Cycle:        31800000, Inst:        70294811
1535462518000: system.switch_cpus: Raw Gem5 Running in Cycle:        31900000, Inst:        70391190
1535512518000: system.switch_cpus: Raw Gem5 Running in Cycle:        32000000, Inst:        70487567
1535562518000: system.switch_cpus: Raw Gem5 Running in Cycle:        32100000, Inst:        70584109
1535612518000: system.switch_cpus: Raw Gem5 Running in Cycle:        32200000, Inst:        70680696
1535662518000: system.switch_cpus: Raw Gem5 Running in Cycle:        32300000, Inst:        70777384
1535712518000: system.switch_cpus: Raw Gem5 Running in Cycle:        32400000, Inst:        70873877
1535762518000: system.switch_cpus: Raw Gem5 Running in Cycle:        32500000, Inst:        70970484
1535812518000: system.switch_cpus: Raw Gem5 Running in Cycle:        32600000, Inst:        71066827
1535862518000: system.switch_cpus: Raw Gem5 Running in Cycle:        32700000, Inst:        71163391
1535912518000: system.switch_cpus: Raw Gem5 Running in Cycle:        32800000, Inst:        71259679
1535962518000: system.switch_cpus: Raw Gem5 Running in Cycle:        32900000, Inst:        71356276
1536012518000: system.switch_cpus: Raw Gem5 Running in Cycle:        33000000, Inst:        71452993
1536062518000: system.switch_cpus: Raw Gem5 Running in Cycle:        33100000, Inst:        71549429
1536112518000: system.switch_cpus: Raw Gem5 Running in Cycle:        33200000, Inst:        71646009
1536162518000: system.switch_cpus: Raw Gem5 Running in Cycle:        33300000, Inst:        71742460
1536212518000: system.switch_cpus: Raw Gem5 Running in Cycle:        33400000, Inst:        71838840
1536262518000: system.switch_cpus: Raw Gem5 Running in Cycle:        33500000, Inst:        71935314
1536312518000: system.switch_cpus: Raw Gem5 Running in Cycle:        33600000, Inst:        72031833
1536362518000: system.switch_cpus: Raw Gem5 Running in Cycle:        33700000, Inst:        72128551
1536412518000: system.switch_cpus: Raw Gem5 Running in Cycle:        33800000, Inst:        72225023
1536462518000: system.switch_cpus: Raw Gem5 Running in Cycle:        33900000, Inst:        72321503
1536512518000: system.switch_cpus: Raw Gem5 Running in Cycle:        34000000, Inst:        72417850
1536562518000: system.switch_cpus: Raw Gem5 Running in Cycle:        34100000, Inst:        72514365
1536612518000: system.switch_cpus: Raw Gem5 Running in Cycle:        34200000, Inst:        72610660
1536662518000: system.switch_cpus: Raw Gem5 Running in Cycle:        34300000, Inst:        72707177
1536712518000: system.switch_cpus: Raw Gem5 Running in Cycle:        34400000, Inst:        72803898
1536762518000: system.switch_cpus: Raw Gem5 Running in Cycle:        34500000, Inst:        72900396
1536812518000: system.switch_cpus: Raw Gem5 Running in Cycle:        34600000, Inst:        72996954
1536862518000: system.switch_cpus: Raw Gem5 Running in Cycle:        34700000, Inst:        73093149
1536912518000: system.switch_cpus: Raw Gem5 Running in Cycle:        34800000, Inst:        73189684
1536962518000: system.switch_cpus: Raw Gem5 Running in Cycle:        34900000, Inst:        73286196
1537012518000: system.switch_cpus: Raw Gem5 Running in Cycle:        35000000, Inst:        73382752
1537062518000: system.switch_cpus: Raw Gem5 Running in Cycle:        35100000, Inst:        73479405
1537112518000: system.switch_cpus: Raw Gem5 Running in Cycle:        35200000, Inst:        73575831
1537162518000: system.switch_cpus: Raw Gem5 Running in Cycle:        35300000, Inst:        73672491
1537212518000: system.switch_cpus: Raw Gem5 Running in Cycle:        35400000, Inst:        73768813
1537262518000: system.switch_cpus: Raw Gem5 Running in Cycle:        35500000, Inst:        73865450
1537312518000: system.switch_cpus: Raw Gem5 Running in Cycle:        35600000, Inst:        73961914
1537362518000: system.switch_cpus: Raw Gem5 Running in Cycle:        35700000, Inst:        74058101
1537412518000: system.switch_cpus: Raw Gem5 Running in Cycle:        35800000, Inst:        74154595
1537462518000: system.switch_cpus: Raw Gem5 Running in Cycle:        35900000, Inst:        74251085
1537512518000: system.switch_cpus: Raw Gem5 Running in Cycle:        36000000, Inst:        74347612
1537562518000: system.switch_cpus: Raw Gem5 Running in Cycle:        36100000, Inst:        74444149
1537612518000: system.switch_cpus: Raw Gem5 Running in Cycle:        36200000, Inst:        74540614
1537662518000: system.switch_cpus: Raw Gem5 Running in Cycle:        36300000, Inst:        74637027
1537712518000: system.switch_cpus: Raw Gem5 Running in Cycle:        36400000, Inst:        74733433
1537762518000: system.switch_cpus: Raw Gem5 Running in Cycle:        36500000, Inst:        74830128
1537812518000: system.switch_cpus: Raw Gem5 Running in Cycle:        36600000, Inst:        74926660
1537862518000: system.switch_cpus: Raw Gem5 Running in Cycle:        36700000, Inst:        75023189
1537912518000: system.switch_cpus: Raw Gem5 Running in Cycle:        36800000, Inst:        75119424
1537962518000: system.switch_cpus: Raw Gem5 Running in Cycle:        36900000, Inst:        75215988
1538012518000: system.switch_cpus: Raw Gem5 Running in Cycle:        37000000, Inst:        75312518
1538062518000: system.switch_cpus: Raw Gem5 Running in Cycle:        37100000, Inst:        75409042
1538112518000: system.switch_cpus: Raw Gem5 Running in Cycle:        37200000, Inst:        75505533
1538162518000: system.switch_cpus: Raw Gem5 Running in Cycle:        37300000, Inst:        75602084
1538212518000: system.switch_cpus: Raw Gem5 Running in Cycle:        37400000, Inst:        75698579
1538262518000: system.switch_cpus: Raw Gem5 Running in Cycle:        37500000, Inst:        75795327
1538312518000: system.switch_cpus: Raw Gem5 Running in Cycle:        37600000, Inst:        76131541
1538362518000: system.switch_cpus: Raw Gem5 Running in Cycle:        37700000, Inst:        76477692
1538412518000: system.switch_cpus: Raw Gem5 Running in Cycle:        37800000, Inst:        76823913
1538462518000: system.switch_cpus: Raw Gem5 Running in Cycle:        37900000, Inst:        77170098
1538512518000: system.switch_cpus: Raw Gem5 Running in Cycle:        38000000, Inst:        77516152
1538562518000: system.switch_cpus: Raw Gem5 Running in Cycle:        38100000, Inst:        77862317
1538612518000: system.switch_cpus: Raw Gem5 Running in Cycle:        38200000, Inst:        78208550
1538662518000: system.switch_cpus: Raw Gem5 Running in Cycle:        38300000, Inst:        78554751
1538712518000: system.switch_cpus: Raw Gem5 Running in Cycle:        38400000, Inst:        78900887
1538762518000: system.switch_cpus: Raw Gem5 Running in Cycle:        38500000, Inst:        79246989
1538812518000: system.switch_cpus: Raw Gem5 Running in Cycle:        38600000, Inst:        79593128
1538862518000: system.switch_cpus: Raw Gem5 Running in Cycle:        38700000, Inst:        79939347
1538912518000: system.switch_cpus: Raw Gem5 Running in Cycle:        38800000, Inst:        80285546
1538962518000: system.switch_cpus: Raw Gem5 Running in Cycle:        38900000, Inst:        80631779
1539012518000: system.switch_cpus: Raw Gem5 Running in Cycle:        39000000, Inst:        80977765
1539062518000: system.switch_cpus: Raw Gem5 Running in Cycle:        39100000, Inst:        81323966
1539112518000: system.switch_cpus: Raw Gem5 Running in Cycle:        39200000, Inst:        81670185
1539162518000: system.switch_cpus: Raw Gem5 Running in Cycle:        39300000, Inst:        82016322
1539212518000: system.switch_cpus: Raw Gem5 Running in Cycle:        39400000, Inst:        82362555
1539262518000: system.switch_cpus: Raw Gem5 Running in Cycle:        39500000, Inst:        82708562
1539312518000: system.switch_cpus: Raw Gem5 Running in Cycle:        39600000, Inst:        83054782
1539362518000: system.switch_cpus: Raw Gem5 Running in Cycle:        39700000, Inst:        83400994
1539412518000: system.switch_cpus: Raw Gem5 Running in Cycle:        39800000, Inst:        83747159
1539462518000: system.switch_cpus: Raw Gem5 Running in Cycle:        39900000, Inst:        84093378
1539512518000: system.switch_cpus: Raw Gem5 Running in Cycle:        40000000, Inst:        84439400
1539562518000: system.switch_cpus: Raw Gem5 Running in Cycle:        40100000, Inst:        84785619
1539612518000: system.switch_cpus: Raw Gem5 Running in Cycle:        40200000, Inst:        85131756
1539662518000: system.switch_cpus: Raw Gem5 Running in Cycle:        40300000, Inst:        85477989
1539712518000: system.switch_cpus: Raw Gem5 Running in Cycle:        40400000, Inst:        85824212
1539762518000: system.switch_cpus: Raw Gem5 Running in Cycle:        40500000, Inst:        86170372
1539812518000: system.switch_cpus: Raw Gem5 Running in Cycle:        40600000, Inst:        86516410
1539862518000: system.switch_cpus: Raw Gem5 Running in Cycle:        40700000, Inst:        86862593
1539912518000: system.switch_cpus: Raw Gem5 Running in Cycle:        40800000, Inst:        87208828
1539962518000: system.switch_cpus: Raw Gem5 Running in Cycle:        40900000, Inst:        87554972
1540012518000: system.switch_cpus: Raw Gem5 Running in Cycle:        41000000, Inst:        87901183
1540062518000: system.switch_cpus: Raw Gem5 Running in Cycle:        41100000, Inst:        88247189
1540112518000: system.switch_cpus: Raw Gem5 Running in Cycle:        41200000, Inst:        88593409
1540162518000: system.switch_cpus: Raw Gem5 Running in Cycle:        41300000, Inst:        88939634
1540212518000: system.switch_cpus: Raw Gem5 Running in Cycle:        41400000, Inst:        89285802
1540262518000: system.switch_cpus: Raw Gem5 Running in Cycle:        41500000, Inst:        89632010
1540312518000: system.switch_cpus: Raw Gem5 Running in Cycle:        41600000, Inst:        89978027
1540362518000: system.switch_cpus: Raw Gem5 Running in Cycle:        41700000, Inst:        90324262
1540412518000: system.switch_cpus: Raw Gem5 Running in Cycle:        41800000, Inst:        90670396
1540462518000: system.switch_cpus: Raw Gem5 Running in Cycle:        41900000, Inst:        91016615
1540512518000: system.switch_cpus: Raw Gem5 Running in Cycle:        42000000, Inst:        91362788
1540562518000: system.switch_cpus: Raw Gem5 Running in Cycle:        42100000, Inst:        91708814
1540612518000: system.switch_cpus: Raw Gem5 Running in Cycle:        42200000, Inst:        92055056
1540662518000: system.switch_cpus: Raw Gem5 Running in Cycle:        42300000, Inst:        92401236
1540712518000: system.switch_cpus: Raw Gem5 Running in Cycle:        42400000, Inst:        92747444
1540762518000: system.switch_cpus: Raw Gem5 Running in Cycle:        42500000, Inst:        93093589
1540812518000: system.switch_cpus: Raw Gem5 Running in Cycle:        42600000, Inst:        93439810
1540862518000: system.switch_cpus: Raw Gem5 Running in Cycle:        42700000, Inst:        93785830
1540912518000: system.switch_cpus: Raw Gem5 Running in Cycle:        42800000, Inst:        94131966
1540962518000: system.switch_cpus: Raw Gem5 Running in Cycle:        42900000, Inst:        94478186
1541012518000: system.switch_cpus: Raw Gem5 Running in Cycle:        43000000, Inst:        94824404
1541062518000: system.switch_cpus: Raw Gem5 Running in Cycle:        43100000, Inst:        95170637
1541112518000: system.switch_cpus: Raw Gem5 Running in Cycle:        43200000, Inst:        95516656
1541162518000: system.switch_cpus: Raw Gem5 Running in Cycle:        43300000, Inst:        95862822
1541212518000: system.switch_cpus: Raw Gem5 Running in Cycle:        43400000, Inst:        96209023
1541262518000: system.switch_cpus: Raw Gem5 Running in Cycle:        43500000, Inst:        96555159
1541312518000: system.switch_cpus: Raw Gem5 Running in Cycle:        43600000, Inst:        96901379
1541362518000: system.switch_cpus: Raw Gem5 Running in Cycle:        43700000, Inst:        97247398
1541412518000: system.switch_cpus: Raw Gem5 Running in Cycle:        43800000, Inst:        97593617
1541462518000: system.switch_cpus: Raw Gem5 Running in Cycle:        43900000, Inst:        97939782
1541512518000: system.switch_cpus: Raw Gem5 Running in Cycle:        44000000, Inst:        98286015
1541562518000: system.switch_cpus: Raw Gem5 Running in Cycle:        44100000, Inst:        98632216
1541612518000: system.switch_cpus: Raw Gem5 Running in Cycle:        44200000, Inst:        98978238
1541662518000: system.switch_cpus: Raw Gem5 Running in Cycle:        44300000, Inst:        99324418
1541712518000: system.switch_cpus: Raw Gem5 Running in Cycle:        44400000, Inst:        99670591
Exiting @ tick 1541760090000 because a thread reached the max instruction count
end time:(year-mon-day hour-minute-second)19-03-30 23-22-04
