
******************************directory****************************
spec_dir: /home/cuihongwei/experiment/mcpat-gem5-master/spec2006/benchspec/CPU2006
run_dir:  /home/cuihongwei/experiment/mcpat-gem5-master/spec2006/benchspec/CPU2006/436.cactusADM/run/run_base_ref_amd64.0001
gem5_dir: /home/cuihongwei/experiment/experiment-gem5/raw-gem5
gem5_output_dir: /home/cuihongwei/experiment/experiment-gem5/raw-gem5/output/436.cactusADM/alpha-OLD-436.cactusADM-input1-190330-225941
benchmark_output:/home/cuihongwei/experiment/experiment-gem5/raw-gem5/output/436.cactusADM/alpha-OLD-436.cactusADM-input1-190330-225941
checkpoint_dir:/home/cuihongwei/experiment/experiment-gem5/pubs-gem5/output/alpha-436.cactusADM-checkpoint-input1

******************************benchmark****************************
target:     436.cactusADM
executable: cactusADM
args:       benchADM.par
input:      
output:     /home/cuihongwei/experiment/experiment-gem5/raw-gem5/output/436.cactusADM/alpha-OLD-436.cactusADM-input1-190330-225941/benchADM.out
errout:     /home/cuihongwei/experiment/experiment-gem5/raw-gem5/output/436.cactusADM/alpha-OLD-436.cactusADM-input1-190330-225941/benchADM.err

******************************gem5****************************
arch:       /home/cuihongwei/experiment/experiment-gem5/raw-gem5/build/ALPHA/gem5.opt
config:     /home/cuihongwei/experiment/experiment-gem5/raw-gem5/configs/example/se.py
args:       --num-cpus=1 --mem-size=8GB --caches --l1d_size=32kB --l1d_assoc=8 --l1i_size=32kB --l1i_assoc=8 --l2cache --l2_size=2MB --l2_assoc=16 --at-instruction --checkpoint-restore=5000000000 --maxinsts=100000000 --cpu-type=DerivO3CPU
debugFlag:  --debug-flags=ShowRunning

******************************simulation****************************
start time:(year-mon-day hour-minute-second)19-03-30 22-59-41
gem5 Simulator System.  http://gem5.org
gem5 is copyrighted software; use the --copyright option for details.

gem5 compiled Mar 30 2019 20:24:53
gem5 started Mar 30 2019 22:59:41
gem5 executing on mprc-R730, pid 14136
command line: /home/cuihongwei/experiment/experiment-gem5/raw-gem5/build/ALPHA/gem5.opt --outdir=/home/cuihongwei/experiment/experiment-gem5/raw-gem5/output/436.cactusADM/alpha-OLD-436.cactusADM-input1-190330-225941 --debug-flags=ShowRunning /home/cuihongwei/experiment/experiment-gem5/raw-gem5/configs/example/se.py --num-cpus=1 --mem-size=8GB --caches --l1d_size=32kB --l1d_assoc=8 --l1i_size=32kB --l1i_assoc=8 --l2cache --l2_size=2MB --l2_assoc=16 --at-instruction --checkpoint-restore=5000000000 --maxinsts=100000000 --cpu-type=DerivO3CPU --checkpoint-dir=/home/cuihongwei/experiment/experiment-gem5/pubs-gem5/output/alpha-436.cactusADM-checkpoint-input1 --cmd=/home/cuihongwei/experiment/mcpat-gem5-master/spec2006/benchspec/CPU2006/436.cactusADM/run/build_peak_alpha.0001/cactusADM --options=benchADM.par --output=/home/cuihongwei/experiment/experiment-gem5/raw-gem5/output/436.cactusADM/alpha-OLD-436.cactusADM-input1-190330-225941/benchADM.out --input= --errout=/home/cuihongwei/experiment/experiment-gem5/raw-gem5/output/436.cactusADM/alpha-OLD-436.cactusADM-input1-190330-225941/benchADM.err

Global frequency set at 1000000000000 ticks per second
Switch at curTick count:10000
Switched CPUS @ tick 2745344611500
switching cpus
**** REAL SIMULATION ****
2745344612000: system.switch_cpus: Raw Gem5 Running in Cycle:               0, Inst:               0
2745403579500: system.switch_cpus: Raw Gem5 Running in Cycle:          100000, Inst:          170900
2745456627500: system.switch_cpus: Raw Gem5 Running in Cycle:          200000, Inst:          378321
2745506627500: system.switch_cpus: Raw Gem5 Running in Cycle:          300000, Inst:          605709
2745556627500: system.switch_cpus: Raw Gem5 Running in Cycle:          400000, Inst:          828838
2745606627500: system.switch_cpus: Raw Gem5 Running in Cycle:          500000, Inst:         1050792
2745656627500: system.switch_cpus: Raw Gem5 Running in Cycle:          600000, Inst:         1272101
2745706627500: system.switch_cpus: Raw Gem5 Running in Cycle:          700000, Inst:         1486453
2745756627500: system.switch_cpus: Raw Gem5 Running in Cycle:          800000, Inst:         1712249
2745806627500: system.switch_cpus: Raw Gem5 Running in Cycle:          900000, Inst:         1930606
2745856627500: system.switch_cpus: Raw Gem5 Running in Cycle:         1000000, Inst:         2151077
2745906627500: system.switch_cpus: Raw Gem5 Running in Cycle:         1100000, Inst:         2374338
2745956627500: system.switch_cpus: Raw Gem5 Running in Cycle:         1200000, Inst:         2598967
2746006627500: system.switch_cpus: Raw Gem5 Running in Cycle:         1300000, Inst:         2817108
2746056627500: system.switch_cpus: Raw Gem5 Running in Cycle:         1400000, Inst:         3046605
2746106627500: system.switch_cpus: Raw Gem5 Running in Cycle:         1500000, Inst:         3271174
2746156627500: system.switch_cpus: Raw Gem5 Running in Cycle:         1600000, Inst:         3492755
2746206627500: system.switch_cpus: Raw Gem5 Running in Cycle:         1700000, Inst:         3719023
2746256627500: system.switch_cpus: Raw Gem5 Running in Cycle:         1800000, Inst:         3933980
2746306627500: system.switch_cpus: Raw Gem5 Running in Cycle:         1900000, Inst:         4151944
2746356627500: system.switch_cpus: Raw Gem5 Running in Cycle:         2000000, Inst:         4375919
2746406627500: system.switch_cpus: Raw Gem5 Running in Cycle:         2100000, Inst:         4594800
2746456627500: system.switch_cpus: Raw Gem5 Running in Cycle:         2200000, Inst:         4820134
2746506627500: system.switch_cpus: Raw Gem5 Running in Cycle:         2300000, Inst:         5042160
2746556627500: system.switch_cpus: Raw Gem5 Running in Cycle:         2400000, Inst:         5263734
2746606627500: system.switch_cpus: Raw Gem5 Running in Cycle:         2500000, Inst:         5490461
2746656627500: system.switch_cpus: Raw Gem5 Running in Cycle:         2600000, Inst:         5716549
2746706627500: system.switch_cpus: Raw Gem5 Running in Cycle:         2700000, Inst:         5933836
2746756627500: system.switch_cpus: Raw Gem5 Running in Cycle:         2800000, Inst:         6159561
2746806627500: system.switch_cpus: Raw Gem5 Running in Cycle:         2900000, Inst:         6381522
2746856627500: system.switch_cpus: Raw Gem5 Running in Cycle:         3000000, Inst:         6597833
2746906627500: system.switch_cpus: Raw Gem5 Running in Cycle:         3100000, Inst:         6818462
2746956627500: system.switch_cpus: Raw Gem5 Running in Cycle:         3200000, Inst:         7038059
2747006627500: system.switch_cpus: Raw Gem5 Running in Cycle:         3300000, Inst:         7262716
2747056627500: system.switch_cpus: Raw Gem5 Running in Cycle:         3400000, Inst:         7484484
2747106627500: system.switch_cpus: Raw Gem5 Running in Cycle:         3500000, Inst:         7704819
2747156627500: system.switch_cpus: Raw Gem5 Running in Cycle:         3600000, Inst:         7929983
2747206627500: system.switch_cpus: Raw Gem5 Running in Cycle:         3700000, Inst:         8155059
2747256627500: system.switch_cpus: Raw Gem5 Running in Cycle:         3800000, Inst:         8376148
2747306627500: system.switch_cpus: Raw Gem5 Running in Cycle:         3900000, Inst:         8599951
2747356627500: system.switch_cpus: Raw Gem5 Running in Cycle:         4000000, Inst:         8821609
2747406627500: system.switch_cpus: Raw Gem5 Running in Cycle:         4100000, Inst:         9043701
2747456627500: system.switch_cpus: Raw Gem5 Running in Cycle:         4200000, Inst:         9262145
2747506627500: system.switch_cpus: Raw Gem5 Running in Cycle:         4300000, Inst:         9481783
2747556627500: system.switch_cpus: Raw Gem5 Running in Cycle:         4400000, Inst:         9705344
2747606627500: system.switch_cpus: Raw Gem5 Running in Cycle:         4500000, Inst:         9928494
2747656627500: system.switch_cpus: Raw Gem5 Running in Cycle:         4600000, Inst:        10150506
2747706627500: system.switch_cpus: Raw Gem5 Running in Cycle:         4700000, Inst:        10375893
2747756627500: system.switch_cpus: Raw Gem5 Running in Cycle:         4800000, Inst:        10601575
2747806627500: system.switch_cpus: Raw Gem5 Running in Cycle:         4900000, Inst:        10822744
2747856627500: system.switch_cpus: Raw Gem5 Running in Cycle:         5000000, Inst:        11047398
2747906627500: system.switch_cpus: Raw Gem5 Running in Cycle:         5100000, Inst:        11269875
2747956627500: system.switch_cpus: Raw Gem5 Running in Cycle:         5200000, Inst:        11487585
2748006627500: system.switch_cpus: Raw Gem5 Running in Cycle:         5300000, Inst:        11707957
2748058273500: system.switch_cpus: Raw Gem5 Running in Cycle:         5400000, Inst:        11780158
2748108273500: system.switch_cpus: Raw Gem5 Running in Cycle:         5500000, Inst:        11808848
2748158273500: system.switch_cpus: Raw Gem5 Running in Cycle:         5600000, Inst:        11833765
2748208273500: system.switch_cpus: Raw Gem5 Running in Cycle:         5700000, Inst:        11858276
2748258273500: system.switch_cpus: Raw Gem5 Running in Cycle:         5800000, Inst:        11886906
2748308273500: system.switch_cpus: Raw Gem5 Running in Cycle:         5900000, Inst:        11911417
2748358273500: system.switch_cpus: Raw Gem5 Running in Cycle:         6000000, Inst:        11935939
2748408273500: system.switch_cpus: Raw Gem5 Running in Cycle:         6100000, Inst:        11965685
2748458273500: system.switch_cpus: Raw Gem5 Running in Cycle:         6200000, Inst:        11990983
2748508273500: system.switch_cpus: Raw Gem5 Running in Cycle:         6300000, Inst:        12015896
2748558273500: system.switch_cpus: Raw Gem5 Running in Cycle:         6400000, Inst:        12045621
2748608273500: system.switch_cpus: Raw Gem5 Running in Cycle:         6500000, Inst:        12070727
2748658273500: system.switch_cpus: Raw Gem5 Running in Cycle:         6600000, Inst:        12096353
2748708273500: system.switch_cpus: Raw Gem5 Running in Cycle:         6700000, Inst:        12125219
2748758273500: system.switch_cpus: Raw Gem5 Running in Cycle:         6800000, Inst:        12150121
2748808273500: system.switch_cpus: Raw Gem5 Running in Cycle:         6900000, Inst:        12176342
2748858273500: system.switch_cpus: Raw Gem5 Running in Cycle:         7000000, Inst:        12204393
2748908273500: system.switch_cpus: Raw Gem5 Running in Cycle:         7100000, Inst:        12229483
2748958273500: system.switch_cpus: Raw Gem5 Running in Cycle:         7200000, Inst:        12255950
2749008273500: system.switch_cpus: Raw Gem5 Running in Cycle:         7300000, Inst:        12283761
2749058273500: system.switch_cpus: Raw Gem5 Running in Cycle:         7400000, Inst:        12308074
2749108273500: system.switch_cpus: Raw Gem5 Running in Cycle:         7500000, Inst:        12334898
2749158273500: system.switch_cpus: Raw Gem5 Running in Cycle:         7600000, Inst:        12361768
2749208273500: system.switch_cpus: Raw Gem5 Running in Cycle:         7700000, Inst:        12386257
2749258273500: system.switch_cpus: Raw Gem5 Running in Cycle:         7800000, Inst:        12413093
2749308273500: system.switch_cpus: Raw Gem5 Running in Cycle:         7900000, Inst:        12439399
2749358273500: system.switch_cpus: Raw Gem5 Running in Cycle:         8000000, Inst:        12463846
2749408273500: system.switch_cpus: Raw Gem5 Running in Cycle:         8100000, Inst:        12491925
2749458273500: system.switch_cpus: Raw Gem5 Running in Cycle:         8200000, Inst:        12518188
2749508273500: system.switch_cpus: Raw Gem5 Running in Cycle:         8300000, Inst:        12543834
2749558273500: system.switch_cpus: Raw Gem5 Running in Cycle:         8400000, Inst:        12572629
2749608273500: system.switch_cpus: Raw Gem5 Running in Cycle:         8500000, Inst:        12598338
2749658273500: system.switch_cpus: Raw Gem5 Running in Cycle:         8600000, Inst:        12623813
2749708273500: system.switch_cpus: Raw Gem5 Running in Cycle:         8700000, Inst:        12653210
2749758273500: system.switch_cpus: Raw Gem5 Running in Cycle:         8800000, Inst:        12678622
2749808273500: system.switch_cpus: Raw Gem5 Running in Cycle:         8900000, Inst:        12704301
2749858273500: system.switch_cpus: Raw Gem5 Running in Cycle:         9000000, Inst:        12732964
2749908273500: system.switch_cpus: Raw Gem5 Running in Cycle:         9100000, Inst:        12757495
2749958273500: system.switch_cpus: Raw Gem5 Running in Cycle:         9200000, Inst:        12782380
2750008273500: system.switch_cpus: Raw Gem5 Running in Cycle:         9300000, Inst:        12810553
2750058273500: system.switch_cpus: Raw Gem5 Running in Cycle:         9400000, Inst:        12833738
2750110090500: system.switch_cpus: Raw Gem5 Running in Cycle:         9500000, Inst:        12978204
2750160090500: system.switch_cpus: Raw Gem5 Running in Cycle:         9600000, Inst:        13184419
2750210090500: system.switch_cpus: Raw Gem5 Running in Cycle:         9700000, Inst:        13406272
2750260090500: system.switch_cpus: Raw Gem5 Running in Cycle:         9800000, Inst:        13629260
2750310090500: system.switch_cpus: Raw Gem5 Running in Cycle:         9900000, Inst:        13854781
2750360090500: system.switch_cpus: Raw Gem5 Running in Cycle:        10000000, Inst:        14072875
2750410090500: system.switch_cpus: Raw Gem5 Running in Cycle:        10100000, Inst:        14296224
2750460090500: system.switch_cpus: Raw Gem5 Running in Cycle:        10200000, Inst:        14508276
2750510090500: system.switch_cpus: Raw Gem5 Running in Cycle:        10300000, Inst:        14728620
2750560090500: system.switch_cpus: Raw Gem5 Running in Cycle:        10400000, Inst:        14945079
2750610090500: system.switch_cpus: Raw Gem5 Running in Cycle:        10500000, Inst:        15163949
2750660090500: system.switch_cpus: Raw Gem5 Running in Cycle:        10600000, Inst:        15382778
2750710090500: system.switch_cpus: Raw Gem5 Running in Cycle:        10700000, Inst:        15609098
2750760090500: system.switch_cpus: Raw Gem5 Running in Cycle:        10800000, Inst:        15827587
2750810090500: system.switch_cpus: Raw Gem5 Running in Cycle:        10900000, Inst:        16051761
2750860090500: system.switch_cpus: Raw Gem5 Running in Cycle:        11000000, Inst:        16278290
2750910090500: system.switch_cpus: Raw Gem5 Running in Cycle:        11100000, Inst:        16499621
2750960090500: system.switch_cpus: Raw Gem5 Running in Cycle:        11200000, Inst:        16725997
2751010090500: system.switch_cpus: Raw Gem5 Running in Cycle:        11300000, Inst:        16951591
2751060090500: system.switch_cpus: Raw Gem5 Running in Cycle:        11400000, Inst:        17172203
2751110090500: system.switch_cpus: Raw Gem5 Running in Cycle:        11500000, Inst:        17392455
2751160090500: system.switch_cpus: Raw Gem5 Running in Cycle:        11600000, Inst:        17610709
2751210090500: system.switch_cpus: Raw Gem5 Running in Cycle:        11700000, Inst:        17833124
2751260090500: system.switch_cpus: Raw Gem5 Running in Cycle:        11800000, Inst:        18053651
2751310090500: system.switch_cpus: Raw Gem5 Running in Cycle:        11900000, Inst:        18270821
2751360090500: system.switch_cpus: Raw Gem5 Running in Cycle:        12000000, Inst:        18499220
2751410090500: system.switch_cpus: Raw Gem5 Running in Cycle:        12100000, Inst:        18724576
2751460090500: system.switch_cpus: Raw Gem5 Running in Cycle:        12200000, Inst:        18942233
2751510090500: system.switch_cpus: Raw Gem5 Running in Cycle:        12300000, Inst:        19163755
2751560090500: system.switch_cpus: Raw Gem5 Running in Cycle:        12400000, Inst:        19388420
2751610090500: system.switch_cpus: Raw Gem5 Running in Cycle:        12500000, Inst:        19608264
2751660090500: system.switch_cpus: Raw Gem5 Running in Cycle:        12600000, Inst:        19827315
2751710090500: system.switch_cpus: Raw Gem5 Running in Cycle:        12700000, Inst:        20046855
2751760090500: system.switch_cpus: Raw Gem5 Running in Cycle:        12800000, Inst:        20262476
2751810090500: system.switch_cpus: Raw Gem5 Running in Cycle:        12900000, Inst:        20485374
2751860090500: system.switch_cpus: Raw Gem5 Running in Cycle:        13000000, Inst:        20710277
2751910090500: system.switch_cpus: Raw Gem5 Running in Cycle:        13100000, Inst:        20930399
2751960090500: system.switch_cpus: Raw Gem5 Running in Cycle:        13200000, Inst:        21160650
2752010090500: system.switch_cpus: Raw Gem5 Running in Cycle:        13300000, Inst:        21383395
2752060090500: system.switch_cpus: Raw Gem5 Running in Cycle:        13400000, Inst:        21604081
2752110090500: system.switch_cpus: Raw Gem5 Running in Cycle:        13500000, Inst:        21829087
2752160090500: system.switch_cpus: Raw Gem5 Running in Cycle:        13600000, Inst:        22048335
2752210090500: system.switch_cpus: Raw Gem5 Running in Cycle:        13700000, Inst:        22271725
2752260090500: system.switch_cpus: Raw Gem5 Running in Cycle:        13800000, Inst:        22485594
2752310090500: system.switch_cpus: Raw Gem5 Running in Cycle:        13900000, Inst:        22704822
2752360090500: system.switch_cpus: Raw Gem5 Running in Cycle:        14000000, Inst:        22923823
2752410090500: system.switch_cpus: Raw Gem5 Running in Cycle:        14100000, Inst:        23153222
2752460090500: system.switch_cpus: Raw Gem5 Running in Cycle:        14200000, Inst:        23372016
2752510090500: system.switch_cpus: Raw Gem5 Running in Cycle:        14300000, Inst:        23599941
2752560090500: system.switch_cpus: Raw Gem5 Running in Cycle:        14400000, Inst:        23824607
2752610090500: system.switch_cpus: Raw Gem5 Running in Cycle:        14500000, Inst:        24046512
2752660090500: system.switch_cpus: Raw Gem5 Running in Cycle:        14600000, Inst:        24263302
2752710090500: system.switch_cpus: Raw Gem5 Running in Cycle:        14700000, Inst:        24489831
2752760090500: system.switch_cpus: Raw Gem5 Running in Cycle:        14800000, Inst:        24706844
2752810090500: system.switch_cpus: Raw Gem5 Running in Cycle:        14900000, Inst:        24934047
2752860090500: system.switch_cpus: Raw Gem5 Running in Cycle:        15000000, Inst:        25149606
2752910090500: system.switch_cpus: Raw Gem5 Running in Cycle:        15100000, Inst:        25367550
2752960090500: system.switch_cpus: Raw Gem5 Running in Cycle:        15200000, Inst:        25588007
2753010090500: system.switch_cpus: Raw Gem5 Running in Cycle:        15300000, Inst:        25811265
2753060090500: system.switch_cpus: Raw Gem5 Running in Cycle:        15400000, Inst:        26035481
2753110090500: system.switch_cpus: Raw Gem5 Running in Cycle:        15500000, Inst:        26258739
2753160090500: system.switch_cpus: Raw Gem5 Running in Cycle:        15600000, Inst:        26481967
2753210090500: system.switch_cpus: Raw Gem5 Running in Cycle:        15700000, Inst:        26701953
2753260090500: system.switch_cpus: Raw Gem5 Running in Cycle:        15800000, Inst:        26921795
2753310090500: system.switch_cpus: Raw Gem5 Running in Cycle:        15900000, Inst:        27137876
2753360090500: system.switch_cpus: Raw Gem5 Running in Cycle:        16000000, Inst:        27358828
2753410090500: system.switch_cpus: Raw Gem5 Running in Cycle:        16100000, Inst:        27583804
2753460090500: system.switch_cpus: Raw Gem5 Running in Cycle:        16200000, Inst:        27802875
2753510090500: system.switch_cpus: Raw Gem5 Running in Cycle:        16300000, Inst:        28025978
2753560090500: system.switch_cpus: Raw Gem5 Running in Cycle:        16400000, Inst:        28245774
2753610090500: system.switch_cpus: Raw Gem5 Running in Cycle:        16500000, Inst:        28472121
2753660090500: system.switch_cpus: Raw Gem5 Running in Cycle:        16600000, Inst:        28701749
2753710090500: system.switch_cpus: Raw Gem5 Running in Cycle:        16700000, Inst:        28925758
2753760090500: system.switch_cpus: Raw Gem5 Running in Cycle:        16800000, Inst:        29148495
2753810090500: system.switch_cpus: Raw Gem5 Running in Cycle:        16900000, Inst:        29380811
2753860090500: system.switch_cpus: Raw Gem5 Running in Cycle:        17000000, Inst:        29598601
2753910090500: system.switch_cpus: Raw Gem5 Running in Cycle:        17100000, Inst:        29823727
2753960090500: system.switch_cpus: Raw Gem5 Running in Cycle:        17200000, Inst:        30046867
2754010090500: system.switch_cpus: Raw Gem5 Running in Cycle:        17300000, Inst:        30267302
2754060090500: system.switch_cpus: Raw Gem5 Running in Cycle:        17400000, Inst:        30490140
2754110090500: system.switch_cpus: Raw Gem5 Running in Cycle:        17500000, Inst:        30718377
2754160090500: system.switch_cpus: Raw Gem5 Running in Cycle:        17600000, Inst:        30936003
2754210090500: system.switch_cpus: Raw Gem5 Running in Cycle:        17700000, Inst:        31169241
2754260090500: system.switch_cpus: Raw Gem5 Running in Cycle:        17800000, Inst:        31396463
2754310090500: system.switch_cpus: Raw Gem5 Running in Cycle:        17900000, Inst:        31619711
2754360090500: system.switch_cpus: Raw Gem5 Running in Cycle:        18000000, Inst:        31845314
2754410090500: system.switch_cpus: Raw Gem5 Running in Cycle:        18100000, Inst:        32073275
2754460090500: system.switch_cpus: Raw Gem5 Running in Cycle:        18200000, Inst:        32295509
2754510090500: system.switch_cpus: Raw Gem5 Running in Cycle:        18300000, Inst:        32516075
2754560090500: system.switch_cpus: Raw Gem5 Running in Cycle:        18400000, Inst:        32736521
2754610090500: system.switch_cpus: Raw Gem5 Running in Cycle:        18500000, Inst:        32965061
2754660090500: system.switch_cpus: Raw Gem5 Running in Cycle:        18600000, Inst:        33191929
2754710090500: system.switch_cpus: Raw Gem5 Running in Cycle:        18700000, Inst:        33417389
2754760090500: system.switch_cpus: Raw Gem5 Running in Cycle:        18800000, Inst:        33644461
2754810090500: system.switch_cpus: Raw Gem5 Running in Cycle:        18900000, Inst:        33873438
2754860090500: system.switch_cpus: Raw Gem5 Running in Cycle:        19000000, Inst:        34100485
2754910090500: system.switch_cpus: Raw Gem5 Running in Cycle:        19100000, Inst:        34325938
2754960090500: system.switch_cpus: Raw Gem5 Running in Cycle:        19200000, Inst:        34555308
2755010090500: system.switch_cpus: Raw Gem5 Running in Cycle:        19300000, Inst:        34774809
2755060090500: system.switch_cpus: Raw Gem5 Running in Cycle:        19400000, Inst:        34997889
2755110090500: system.switch_cpus: Raw Gem5 Running in Cycle:        19500000, Inst:        35220025
2755160090500: system.switch_cpus: Raw Gem5 Running in Cycle:        19600000, Inst:        35445705
2755210090500: system.switch_cpus: Raw Gem5 Running in Cycle:        19700000, Inst:        35668508
2755260090500: system.switch_cpus: Raw Gem5 Running in Cycle:        19800000, Inst:        35894120
2755310090500: system.switch_cpus: Raw Gem5 Running in Cycle:        19900000, Inst:        36121500
2755360090500: system.switch_cpus: Raw Gem5 Running in Cycle:        20000000, Inst:        36345629
2755410090500: system.switch_cpus: Raw Gem5 Running in Cycle:        20100000, Inst:        36571911
2755460090500: system.switch_cpus: Raw Gem5 Running in Cycle:        20200000, Inst:        36794428
2755510090500: system.switch_cpus: Raw Gem5 Running in Cycle:        20300000, Inst:        37022837
2755560090500: system.switch_cpus: Raw Gem5 Running in Cycle:        20400000, Inst:        37243400
2755610090500: system.switch_cpus: Raw Gem5 Running in Cycle:        20500000, Inst:        37468114
2755660090500: system.switch_cpus: Raw Gem5 Running in Cycle:        20600000, Inst:        37690313
2755710090500: system.switch_cpus: Raw Gem5 Running in Cycle:        20700000, Inst:        37912809
2755760090500: system.switch_cpus: Raw Gem5 Running in Cycle:        20800000, Inst:        38132017
2755810090500: system.switch_cpus: Raw Gem5 Running in Cycle:        20900000, Inst:        38357004
2755860090500: system.switch_cpus: Raw Gem5 Running in Cycle:        21000000, Inst:        38577952
2755910090500: system.switch_cpus: Raw Gem5 Running in Cycle:        21100000, Inst:        38807515
2755960090500: system.switch_cpus: Raw Gem5 Running in Cycle:        21200000, Inst:        39031005
2756010090500: system.switch_cpus: Raw Gem5 Running in Cycle:        21300000, Inst:        39251654
2756060090500: system.switch_cpus: Raw Gem5 Running in Cycle:        21400000, Inst:        39476732
2756110090500: system.switch_cpus: Raw Gem5 Running in Cycle:        21500000, Inst:        39699533
2756160090500: system.switch_cpus: Raw Gem5 Running in Cycle:        21600000, Inst:        39922477
2756210090500: system.switch_cpus: Raw Gem5 Running in Cycle:        21700000, Inst:        40140601
2756260090500: system.switch_cpus: Raw Gem5 Running in Cycle:        21800000, Inst:        40358267
2756310090500: system.switch_cpus: Raw Gem5 Running in Cycle:        21900000, Inst:        40586603
2756360090500: system.switch_cpus: Raw Gem5 Running in Cycle:        22000000, Inst:        40808251
2756410090500: system.switch_cpus: Raw Gem5 Running in Cycle:        22100000, Inst:        41024496
2756460090500: system.switch_cpus: Raw Gem5 Running in Cycle:        22200000, Inst:        41254648
2756510090500: system.switch_cpus: Raw Gem5 Running in Cycle:        22300000, Inst:        41479826
2756560090500: system.switch_cpus: Raw Gem5 Running in Cycle:        22400000, Inst:        41697582
2756610090500: system.switch_cpus: Raw Gem5 Running in Cycle:        22500000, Inst:        41923529
2756660090500: system.switch_cpus: Raw Gem5 Running in Cycle:        22600000, Inst:        42144417
2756710090500: system.switch_cpus: Raw Gem5 Running in Cycle:        22700000, Inst:        42367301
2756760090500: system.switch_cpus: Raw Gem5 Running in Cycle:        22800000, Inst:        42591233
2756810090500: system.switch_cpus: Raw Gem5 Running in Cycle:        22900000, Inst:        42810733
2756860090500: system.switch_cpus: Raw Gem5 Running in Cycle:        23000000, Inst:        43028399
2756910090500: system.switch_cpus: Raw Gem5 Running in Cycle:        23100000, Inst:        43252550
2756960090500: system.switch_cpus: Raw Gem5 Running in Cycle:        23200000, Inst:        43474108
2757010090500: system.switch_cpus: Raw Gem5 Running in Cycle:        23300000, Inst:        43700308
2757060090500: system.switch_cpus: Raw Gem5 Running in Cycle:        23400000, Inst:        43926067
2757110090500: system.switch_cpus: Raw Gem5 Running in Cycle:        23500000, Inst:        44151369
2757160090500: system.switch_cpus: Raw Gem5 Running in Cycle:        23600000, Inst:        44371501
2757210090500: system.switch_cpus: Raw Gem5 Running in Cycle:        23700000, Inst:        44596713
2757260090500: system.switch_cpus: Raw Gem5 Running in Cycle:        23800000, Inst:        44815263
2757310090500: system.switch_cpus: Raw Gem5 Running in Cycle:        23900000, Inst:        45040085
2757360090500: system.switch_cpus: Raw Gem5 Running in Cycle:        24000000, Inst:        45259210
2757410090500: system.switch_cpus: Raw Gem5 Running in Cycle:        24100000, Inst:        45476378
2757460090500: system.switch_cpus: Raw Gem5 Running in Cycle:        24200000, Inst:        45695082
2757510090500: system.switch_cpus: Raw Gem5 Running in Cycle:        24300000, Inst:        45920667
2757560090500: system.switch_cpus: Raw Gem5 Running in Cycle:        24400000, Inst:        46144249
2757610090500: system.switch_cpus: Raw Gem5 Running in Cycle:        24500000, Inst:        46373232
2757660090500: system.switch_cpus: Raw Gem5 Running in Cycle:        24600000, Inst:        46594358
2757710090500: system.switch_cpus: Raw Gem5 Running in Cycle:        24700000, Inst:        46818427
2757760090500: system.switch_cpus: Raw Gem5 Running in Cycle:        24800000, Inst:        47041782
2757810090500: system.switch_cpus: Raw Gem5 Running in Cycle:        24900000, Inst:        47262476
2757860090500: system.switch_cpus: Raw Gem5 Running in Cycle:        25000000, Inst:        47484473
2757910090500: system.switch_cpus: Raw Gem5 Running in Cycle:        25100000, Inst:        47702242
2757960090500: system.switch_cpus: Raw Gem5 Running in Cycle:        25200000, Inst:        47726541
2758010090500: system.switch_cpus: Raw Gem5 Running in Cycle:        25300000, Inst:        47753994
2758060090500: system.switch_cpus: Raw Gem5 Running in Cycle:        25400000, Inst:        47777932
2758110090500: system.switch_cpus: Raw Gem5 Running in Cycle:        25500000, Inst:        47803017
2758160090500: system.switch_cpus: Raw Gem5 Running in Cycle:        25600000, Inst:        47831009
2758210090500: system.switch_cpus: Raw Gem5 Running in Cycle:        25700000, Inst:        47854394
2758260090500: system.switch_cpus: Raw Gem5 Running in Cycle:        25800000, Inst:        47879484
2758310090500: system.switch_cpus: Raw Gem5 Running in Cycle:        25900000, Inst:        47907285
2758360090500: system.switch_cpus: Raw Gem5 Running in Cycle:        26000000, Inst:        47931795
2758410090500: system.switch_cpus: Raw Gem5 Running in Cycle:        26100000, Inst:        47958058
2758460090500: system.switch_cpus: Raw Gem5 Running in Cycle:        26200000, Inst:        47985714
2758510090500: system.switch_cpus: Raw Gem5 Running in Cycle:        26300000, Inst:        48010626
2758560090500: system.switch_cpus: Raw Gem5 Running in Cycle:        26400000, Inst:        48038641
2758610090500: system.switch_cpus: Raw Gem5 Running in Cycle:        26500000, Inst:        48067188
2758660090500: system.switch_cpus: Raw Gem5 Running in Cycle:        26600000, Inst:        48093419
2758710090500: system.switch_cpus: Raw Gem5 Running in Cycle:        26700000, Inst:        48123439
2758760090500: system.switch_cpus: Raw Gem5 Running in Cycle:        26800000, Inst:        48150479
2758810090500: system.switch_cpus: Raw Gem5 Running in Cycle:        26900000, Inst:        48177132
2758860090500: system.switch_cpus: Raw Gem5 Running in Cycle:        27000000, Inst:        48207697
2758910090500: system.switch_cpus: Raw Gem5 Running in Cycle:        27100000, Inst:        48233746
2758960090500: system.switch_cpus: Raw Gem5 Running in Cycle:        27200000, Inst:        48260551
2759010090500: system.switch_cpus: Raw Gem5 Running in Cycle:        27300000, Inst:        48289386
2759060090500: system.switch_cpus: Raw Gem5 Running in Cycle:        27400000, Inst:        48315445
2759110090500: system.switch_cpus: Raw Gem5 Running in Cycle:        27500000, Inst:        48342844
2759160090500: system.switch_cpus: Raw Gem5 Running in Cycle:        27600000, Inst:        48369937
2759210090500: system.switch_cpus: Raw Gem5 Running in Cycle:        27700000, Inst:        48395349
2759260090500: system.switch_cpus: Raw Gem5 Running in Cycle:        27800000, Inst:        48422864
2759310090500: system.switch_cpus: Raw Gem5 Running in Cycle:        27900000, Inst:        48449691
2759360090500: system.switch_cpus: Raw Gem5 Running in Cycle:        28000000, Inst:        48474806
2759410090500: system.switch_cpus: Raw Gem5 Running in Cycle:        28100000, Inst:        48503342
2759460090500: system.switch_cpus: Raw Gem5 Running in Cycle:        28200000, Inst:        48529257
2759510090500: system.switch_cpus: Raw Gem5 Running in Cycle:        28300000, Inst:        48554116
2759560090500: system.switch_cpus: Raw Gem5 Running in Cycle:        28400000, Inst:        48582715
2759610090500: system.switch_cpus: Raw Gem5 Running in Cycle:        28500000, Inst:        48607288
2759660090500: system.switch_cpus: Raw Gem5 Running in Cycle:        28600000, Inst:        48632194
2759710090500: system.switch_cpus: Raw Gem5 Running in Cycle:        28700000, Inst:        48661166
2759760090500: system.switch_cpus: Raw Gem5 Running in Cycle:        28800000, Inst:        48685285
2759810090500: system.switch_cpus: Raw Gem5 Running in Cycle:        28900000, Inst:        48710358
2759860090500: system.switch_cpus: Raw Gem5 Running in Cycle:        29000000, Inst:        48738958
2759910090500: system.switch_cpus: Raw Gem5 Running in Cycle:        29100000, Inst:        48762331
2759960090500: system.switch_cpus: Raw Gem5 Running in Cycle:        29200000, Inst:        48829808
2760010090500: system.switch_cpus: Raw Gem5 Running in Cycle:        29300000, Inst:        49031621
2760060090500: system.switch_cpus: Raw Gem5 Running in Cycle:        29400000, Inst:        49251730
2760110090500: system.switch_cpus: Raw Gem5 Running in Cycle:        29500000, Inst:        49475500
2760160090500: system.switch_cpus: Raw Gem5 Running in Cycle:        29600000, Inst:        49696151
2760210090500: system.switch_cpus: Raw Gem5 Running in Cycle:        29700000, Inst:        49919914
2760260090500: system.switch_cpus: Raw Gem5 Running in Cycle:        29800000, Inst:        50128907
2760310090500: system.switch_cpus: Raw Gem5 Running in Cycle:        29900000, Inst:        50349039
2760360090500: system.switch_cpus: Raw Gem5 Running in Cycle:        30000000, Inst:        50564258
2760410090500: system.switch_cpus: Raw Gem5 Running in Cycle:        30100000, Inst:        50775699
2760460090500: system.switch_cpus: Raw Gem5 Running in Cycle:        30200000, Inst:        50990294
2760510090500: system.switch_cpus: Raw Gem5 Running in Cycle:        30300000, Inst:        51215023
2760560090500: system.switch_cpus: Raw Gem5 Running in Cycle:        30400000, Inst:        51433071
2760610090500: system.switch_cpus: Raw Gem5 Running in Cycle:        30500000, Inst:        51652883
2760660090500: system.switch_cpus: Raw Gem5 Running in Cycle:        30600000, Inst:        51880719
2760710090500: system.switch_cpus: Raw Gem5 Running in Cycle:        30700000, Inst:        52099772
2760760090500: system.switch_cpus: Raw Gem5 Running in Cycle:        30800000, Inst:        52320123
2760810090500: system.switch_cpus: Raw Gem5 Running in Cycle:        30900000, Inst:        52540102
2760860090500: system.switch_cpus: Raw Gem5 Running in Cycle:        31000000, Inst:        52761249
2760910090500: system.switch_cpus: Raw Gem5 Running in Cycle:        31100000, Inst:        52984524
2760960090500: system.switch_cpus: Raw Gem5 Running in Cycle:        31200000, Inst:        53205897
2761010090500: system.switch_cpus: Raw Gem5 Running in Cycle:        31300000, Inst:        53421485
2761060090500: system.switch_cpus: Raw Gem5 Running in Cycle:        31400000, Inst:        53641957
2761110090500: system.switch_cpus: Raw Gem5 Running in Cycle:        31500000, Inst:        53858261
2761160090500: system.switch_cpus: Raw Gem5 Running in Cycle:        31600000, Inst:        54081617
2761210090500: system.switch_cpus: Raw Gem5 Running in Cycle:        31700000, Inst:        54310398
2761260090500: system.switch_cpus: Raw Gem5 Running in Cycle:        31800000, Inst:        54528372
2761310090500: system.switch_cpus: Raw Gem5 Running in Cycle:        31900000, Inst:        54753116
2761360090500: system.switch_cpus: Raw Gem5 Running in Cycle:        32000000, Inst:        54976335
2761410090500: system.switch_cpus: Raw Gem5 Running in Cycle:        32100000, Inst:        55191554
2761460090500: system.switch_cpus: Raw Gem5 Running in Cycle:        32200000, Inst:        55409525
2761510090500: system.switch_cpus: Raw Gem5 Running in Cycle:        32300000, Inst:        55627315
2761560090500: system.switch_cpus: Raw Gem5 Running in Cycle:        32400000, Inst:        55844082
2761610090500: system.switch_cpus: Raw Gem5 Running in Cycle:        32500000, Inst:        56065483
2761660090500: system.switch_cpus: Raw Gem5 Running in Cycle:        32600000, Inst:        56286293
2761710090500: system.switch_cpus: Raw Gem5 Running in Cycle:        32700000, Inst:        56498892
2761760090500: system.switch_cpus: Raw Gem5 Running in Cycle:        32800000, Inst:        56728913
2761810090500: system.switch_cpus: Raw Gem5 Running in Cycle:        32900000, Inst:        56952651
2761860090500: system.switch_cpus: Raw Gem5 Running in Cycle:        33000000, Inst:        57176610
2761910090500: system.switch_cpus: Raw Gem5 Running in Cycle:        33100000, Inst:        57395506
2761960090500: system.switch_cpus: Raw Gem5 Running in Cycle:        33200000, Inst:        57620487
2762010090500: system.switch_cpus: Raw Gem5 Running in Cycle:        33300000, Inst:        57833290
2762060090500: system.switch_cpus: Raw Gem5 Running in Cycle:        33400000, Inst:        58053793
2762110090500: system.switch_cpus: Raw Gem5 Running in Cycle:        33500000, Inst:        58271040
2762160090500: system.switch_cpus: Raw Gem5 Running in Cycle:        33600000, Inst:        58491548
2762210090500: system.switch_cpus: Raw Gem5 Running in Cycle:        33700000, Inst:        58717098
2762260090500: system.switch_cpus: Raw Gem5 Running in Cycle:        33800000, Inst:        58934157
2762310090500: system.switch_cpus: Raw Gem5 Running in Cycle:        33900000, Inst:        59150796
2762360090500: system.switch_cpus: Raw Gem5 Running in Cycle:        34000000, Inst:        59380309
2762410090500: system.switch_cpus: Raw Gem5 Running in Cycle:        34100000, Inst:        59605889
2762460090500: system.switch_cpus: Raw Gem5 Running in Cycle:        34200000, Inst:        59826632
2762510090500: system.switch_cpus: Raw Gem5 Running in Cycle:        34300000, Inst:        60052928
2762560090500: system.switch_cpus: Raw Gem5 Running in Cycle:        34400000, Inst:        60267587
2762610090500: system.switch_cpus: Raw Gem5 Running in Cycle:        34500000, Inst:        60484464
2762660090500: system.switch_cpus: Raw Gem5 Running in Cycle:        34600000, Inst:        60708022
2762710090500: system.switch_cpus: Raw Gem5 Running in Cycle:        34700000, Inst:        60923621
2762760090500: system.switch_cpus: Raw Gem5 Running in Cycle:        34800000, Inst:        61145641
2762810090500: system.switch_cpus: Raw Gem5 Running in Cycle:        34900000, Inst:        61367700
2762860090500: system.switch_cpus: Raw Gem5 Running in Cycle:        35000000, Inst:        61591817
2762910090500: system.switch_cpus: Raw Gem5 Running in Cycle:        35100000, Inst:        61813664
2762960090500: system.switch_cpus: Raw Gem5 Running in Cycle:        35200000, Inst:        62039210
2763010090500: system.switch_cpus: Raw Gem5 Running in Cycle:        35300000, Inst:        62267865
2763060090500: system.switch_cpus: Raw Gem5 Running in Cycle:        35400000, Inst:        62487966
2763110090500: system.switch_cpus: Raw Gem5 Running in Cycle:        35500000, Inst:        62706162
2763160090500: system.switch_cpus: Raw Gem5 Running in Cycle:        35600000, Inst:        62931727
2763210090500: system.switch_cpus: Raw Gem5 Running in Cycle:        35700000, Inst:        63148930
2763260090500: system.switch_cpus: Raw Gem5 Running in Cycle:        35800000, Inst:        63366480
2763310090500: system.switch_cpus: Raw Gem5 Running in Cycle:        35900000, Inst:        63587710
2763360090500: system.switch_cpus: Raw Gem5 Running in Cycle:        36000000, Inst:        63819913
2763410090500: system.switch_cpus: Raw Gem5 Running in Cycle:        36100000, Inst:        64037759
2763460090500: system.switch_cpus: Raw Gem5 Running in Cycle:        36200000, Inst:        64258388
2763510090500: system.switch_cpus: Raw Gem5 Running in Cycle:        36300000, Inst:        64487615
2763560090500: system.switch_cpus: Raw Gem5 Running in Cycle:        36400000, Inst:        64713808
2763610090500: system.switch_cpus: Raw Gem5 Running in Cycle:        36500000, Inst:        64938903
2763660090500: system.switch_cpus: Raw Gem5 Running in Cycle:        36600000, Inst:        65162303
2763710090500: system.switch_cpus: Raw Gem5 Running in Cycle:        36700000, Inst:        65387800
2763760090500: system.switch_cpus: Raw Gem5 Running in Cycle:        36800000, Inst:        65615055
2763810090500: system.switch_cpus: Raw Gem5 Running in Cycle:        36900000, Inst:        65835581
2763860090500: system.switch_cpus: Raw Gem5 Running in Cycle:        37000000, Inst:        66058597
2763910090500: system.switch_cpus: Raw Gem5 Running in Cycle:        37100000, Inst:        66285930
2763960090500: system.switch_cpus: Raw Gem5 Running in Cycle:        37200000, Inst:        66506897
2764010090500: system.switch_cpus: Raw Gem5 Running in Cycle:        37300000, Inst:        66730924
2764060090500: system.switch_cpus: Raw Gem5 Running in Cycle:        37400000, Inst:        66961272
2764110090500: system.switch_cpus: Raw Gem5 Running in Cycle:        37500000, Inst:        67187963
2764160090500: system.switch_cpus: Raw Gem5 Running in Cycle:        37600000, Inst:        67412095
2764210090500: system.switch_cpus: Raw Gem5 Running in Cycle:        37700000, Inst:        67643293
2764260090500: system.switch_cpus: Raw Gem5 Running in Cycle:        37800000, Inst:        67863950
2764310090500: system.switch_cpus: Raw Gem5 Running in Cycle:        37900000, Inst:        68093446
2764360090500: system.switch_cpus: Raw Gem5 Running in Cycle:        38000000, Inst:        68317212
2764410090500: system.switch_cpus: Raw Gem5 Running in Cycle:        38100000, Inst:        68536983
2764460090500: system.switch_cpus: Raw Gem5 Running in Cycle:        38200000, Inst:        68765251
2764510090500: system.switch_cpus: Raw Gem5 Running in Cycle:        38300000, Inst:        68988011
2764560090500: system.switch_cpus: Raw Gem5 Running in Cycle:        38400000, Inst:        69217684
2764610090500: system.switch_cpus: Raw Gem5 Running in Cycle:        38500000, Inst:        69449366
2764660090500: system.switch_cpus: Raw Gem5 Running in Cycle:        38600000, Inst:        69673722
2764710090500: system.switch_cpus: Raw Gem5 Running in Cycle:        38700000, Inst:        69901422
2764760090500: system.switch_cpus: Raw Gem5 Running in Cycle:        38800000, Inst:        70127694
2764810090500: system.switch_cpus: Raw Gem5 Running in Cycle:        38900000, Inst:        70350387
2764860090500: system.switch_cpus: Raw Gem5 Running in Cycle:        39000000, Inst:        70578704
2764910090500: system.switch_cpus: Raw Gem5 Running in Cycle:        39100000, Inst:        70805283
2764960090500: system.switch_cpus: Raw Gem5 Running in Cycle:        39200000, Inst:        71028863
2765010090500: system.switch_cpus: Raw Gem5 Running in Cycle:        39300000, Inst:        71251786
2765060090500: system.switch_cpus: Raw Gem5 Running in Cycle:        39400000, Inst:        71483372
2765110090500: system.switch_cpus: Raw Gem5 Running in Cycle:        39500000, Inst:        71707326
2765160090500: system.switch_cpus: Raw Gem5 Running in Cycle:        39600000, Inst:        71941787
2765210090500: system.switch_cpus: Raw Gem5 Running in Cycle:        39700000, Inst:        72170852
2765260090500: system.switch_cpus: Raw Gem5 Running in Cycle:        39800000, Inst:        72405505
2765310090500: system.switch_cpus: Raw Gem5 Running in Cycle:        39900000, Inst:        72630833
2765360090500: system.switch_cpus: Raw Gem5 Running in Cycle:        40000000, Inst:        72848949
2765410090500: system.switch_cpus: Raw Gem5 Running in Cycle:        40100000, Inst:        73077053
2765460090500: system.switch_cpus: Raw Gem5 Running in Cycle:        40200000, Inst:        73301263
2765510090500: system.switch_cpus: Raw Gem5 Running in Cycle:        40300000, Inst:        73521095
2765560090500: system.switch_cpus: Raw Gem5 Running in Cycle:        40400000, Inst:        73748135
2765610090500: system.switch_cpus: Raw Gem5 Running in Cycle:        40500000, Inst:        73970295
2765660090500: system.switch_cpus: Raw Gem5 Running in Cycle:        40600000, Inst:        74194178
2765710090500: system.switch_cpus: Raw Gem5 Running in Cycle:        40700000, Inst:        74422928
2765760090500: system.switch_cpus: Raw Gem5 Running in Cycle:        40800000, Inst:        74653067
2765810090500: system.switch_cpus: Raw Gem5 Running in Cycle:        40900000, Inst:        74876852
2765860090500: system.switch_cpus: Raw Gem5 Running in Cycle:        41000000, Inst:        75102827
2765910090500: system.switch_cpus: Raw Gem5 Running in Cycle:        41100000, Inst:        75322611
2765960090500: system.switch_cpus: Raw Gem5 Running in Cycle:        41200000, Inst:        75543501
2766010090500: system.switch_cpus: Raw Gem5 Running in Cycle:        41300000, Inst:        75763527
2766060090500: system.switch_cpus: Raw Gem5 Running in Cycle:        41400000, Inst:        75979136
2766110090500: system.switch_cpus: Raw Gem5 Running in Cycle:        41500000, Inst:        76209040
2766160090500: system.switch_cpus: Raw Gem5 Running in Cycle:        41600000, Inst:        76432208
2766210090500: system.switch_cpus: Raw Gem5 Running in Cycle:        41700000, Inst:        76650053
2766260090500: system.switch_cpus: Raw Gem5 Running in Cycle:        41800000, Inst:        76878039
2766310090500: system.switch_cpus: Raw Gem5 Running in Cycle:        41900000, Inst:        77105296
2766360090500: system.switch_cpus: Raw Gem5 Running in Cycle:        42000000, Inst:        77331027
2766410090500: system.switch_cpus: Raw Gem5 Running in Cycle:        42100000, Inst:        77554584
2766460090500: system.switch_cpus: Raw Gem5 Running in Cycle:        42200000, Inst:        77777819
2766510090500: system.switch_cpus: Raw Gem5 Running in Cycle:        42300000, Inst:        77999040
2766560090500: system.switch_cpus: Raw Gem5 Running in Cycle:        42400000, Inst:        78219973
2766610090500: system.switch_cpus: Raw Gem5 Running in Cycle:        42500000, Inst:        78437569
2766660090500: system.switch_cpus: Raw Gem5 Running in Cycle:        42600000, Inst:        78657515
2766710090500: system.switch_cpus: Raw Gem5 Running in Cycle:        42700000, Inst:        78885835
2766760090500: system.switch_cpus: Raw Gem5 Running in Cycle:        42800000, Inst:        79106117
2766810090500: system.switch_cpus: Raw Gem5 Running in Cycle:        42900000, Inst:        79324011
2766860090500: system.switch_cpus: Raw Gem5 Running in Cycle:        43000000, Inst:        79554769
2766910090500: system.switch_cpus: Raw Gem5 Running in Cycle:        43100000, Inst:        79779199
2766960090500: system.switch_cpus: Raw Gem5 Running in Cycle:        43200000, Inst:        79999800
2767010090500: system.switch_cpus: Raw Gem5 Running in Cycle:        43300000, Inst:        80225548
2767060090500: system.switch_cpus: Raw Gem5 Running in Cycle:        43400000, Inst:        80443668
2767110090500: system.switch_cpus: Raw Gem5 Running in Cycle:        43500000, Inst:        80663573
2767160090500: system.switch_cpus: Raw Gem5 Running in Cycle:        43600000, Inst:        80883992
2767210090500: system.switch_cpus: Raw Gem5 Running in Cycle:        43700000, Inst:        81099567
2767260090500: system.switch_cpus: Raw Gem5 Running in Cycle:        43800000, Inst:        81323201
2767310090500: system.switch_cpus: Raw Gem5 Running in Cycle:        43900000, Inst:        81549711
2767360090500: system.switch_cpus: Raw Gem5 Running in Cycle:        44000000, Inst:        81769977
2767410090500: system.switch_cpus: Raw Gem5 Running in Cycle:        44100000, Inst:        81993288
2767460090500: system.switch_cpus: Raw Gem5 Running in Cycle:        44200000, Inst:        82217851
2767510090500: system.switch_cpus: Raw Gem5 Running in Cycle:        44300000, Inst:        82441221
2767560090500: system.switch_cpus: Raw Gem5 Running in Cycle:        44400000, Inst:        82668671
2767610090500: system.switch_cpus: Raw Gem5 Running in Cycle:        44500000, Inst:        82886393
2767660090500: system.switch_cpus: Raw Gem5 Running in Cycle:        44600000, Inst:        83107862
2767710090500: system.switch_cpus: Raw Gem5 Running in Cycle:        44700000, Inst:        83329320
2767760090500: system.switch_cpus: Raw Gem5 Running in Cycle:        44800000, Inst:        83545194
2767810090500: system.switch_cpus: Raw Gem5 Running in Cycle:        44900000, Inst:        83653979
2767860090500: system.switch_cpus: Raw Gem5 Running in Cycle:        45000000, Inst:        83682588
2767910090500: system.switch_cpus: Raw Gem5 Running in Cycle:        45100000, Inst:        83707035
2767960090500: system.switch_cpus: Raw Gem5 Running in Cycle:        45200000, Inst:        83731588
2768010090500: system.switch_cpus: Raw Gem5 Running in Cycle:        45300000, Inst:        83759625
2768060090500: system.switch_cpus: Raw Gem5 Running in Cycle:        45400000, Inst:        83783341
2768110090500: system.switch_cpus: Raw Gem5 Running in Cycle:        45500000, Inst:        83807226
2768160090500: system.switch_cpus: Raw Gem5 Running in Cycle:        45600000, Inst:        83835888
2768210090500: system.switch_cpus: Raw Gem5 Running in Cycle:        45700000, Inst:        83860984
2768260090500: system.switch_cpus: Raw Gem5 Running in Cycle:        45800000, Inst:        83886652
2768310090500: system.switch_cpus: Raw Gem5 Running in Cycle:        45900000, Inst:        83915845
2768360090500: system.switch_cpus: Raw Gem5 Running in Cycle:        46000000, Inst:        83940961
2768410090500: system.switch_cpus: Raw Gem5 Running in Cycle:        46100000, Inst:        83968340
2768460090500: system.switch_cpus: Raw Gem5 Running in Cycle:        46200000, Inst:        83997534
2768510090500: system.switch_cpus: Raw Gem5 Running in Cycle:        46300000, Inst:        84023817
2768560090500: system.switch_cpus: Raw Gem5 Running in Cycle:        46400000, Inst:        84053126
2768610090500: system.switch_cpus: Raw Gem5 Running in Cycle:        46500000, Inst:        84080640
2768660090500: system.switch_cpus: Raw Gem5 Running in Cycle:        46600000, Inst:        84107425
2768710090500: system.switch_cpus: Raw Gem5 Running in Cycle:        46700000, Inst:        84137828
2768760090500: system.switch_cpus: Raw Gem5 Running in Cycle:        46800000, Inst:        84164081
2768810090500: system.switch_cpus: Raw Gem5 Running in Cycle:        46900000, Inst:        84190548
2768860090500: system.switch_cpus: Raw Gem5 Running in Cycle:        47000000, Inst:        84220653
2768910090500: system.switch_cpus: Raw Gem5 Running in Cycle:        47100000, Inst:        84246354
2768960090500: system.switch_cpus: Raw Gem5 Running in Cycle:        47200000, Inst:        84272844
2769010090500: system.switch_cpus: Raw Gem5 Running in Cycle:        47300000, Inst:        84301799
2769060090500: system.switch_cpus: Raw Gem5 Running in Cycle:        47400000, Inst:        84327119
2769110090500: system.switch_cpus: Raw Gem5 Running in Cycle:        47500000, Inst:        84353966
2769160090500: system.switch_cpus: Raw Gem5 Running in Cycle:        47600000, Inst:        84381184
2769210090500: system.switch_cpus: Raw Gem5 Running in Cycle:        47700000, Inst:        84406289
2769260090500: system.switch_cpus: Raw Gem5 Running in Cycle:        47800000, Inst:        84434261
2769310090500: system.switch_cpus: Raw Gem5 Running in Cycle:        47900000, Inst:        84460545
2769360090500: system.switch_cpus: Raw Gem5 Running in Cycle:        48000000, Inst:        84485078
2769410090500: system.switch_cpus: Raw Gem5 Running in Cycle:        48100000, Inst:        84513093
2769460090500: system.switch_cpus: Raw Gem5 Running in Cycle:        48200000, Inst:        84538781
2769510090500: system.switch_cpus: Raw Gem5 Running in Cycle:        48300000, Inst:        84563866
2769560090500: system.switch_cpus: Raw Gem5 Running in Cycle:        48400000, Inst:        84592055
2769610090500: system.switch_cpus: Raw Gem5 Running in Cycle:        48500000, Inst:        84616955
2769660090500: system.switch_cpus: Raw Gem5 Running in Cycle:        48600000, Inst:        84641308
2769710090500: system.switch_cpus: Raw Gem5 Running in Cycle:        48700000, Inst:        84669798
2769760090500: system.switch_cpus: Raw Gem5 Running in Cycle:        48800000, Inst:        84693444
2769810090500: system.switch_cpus: Raw Gem5 Running in Cycle:        48900000, Inst:        84715943
2769860090500: system.switch_cpus: Raw Gem5 Running in Cycle:        49000000, Inst:        84905801
2769910090500: system.switch_cpus: Raw Gem5 Running in Cycle:        49100000, Inst:        85123709
2769960090500: system.switch_cpus: Raw Gem5 Running in Cycle:        49200000, Inst:        85345377
2770010090500: system.switch_cpus: Raw Gem5 Running in Cycle:        49300000, Inst:        85566333
2770060090500: system.switch_cpus: Raw Gem5 Running in Cycle:        49400000, Inst:        85786296
2770110090500: system.switch_cpus: Raw Gem5 Running in Cycle:        49500000, Inst:        85994647
2770160090500: system.switch_cpus: Raw Gem5 Running in Cycle:        49600000, Inst:        86210732
2770210090500: system.switch_cpus: Raw Gem5 Running in Cycle:        49700000, Inst:        86430580
2770260090500: system.switch_cpus: Raw Gem5 Running in Cycle:        49800000, Inst:        86645971
2770310090500: system.switch_cpus: Raw Gem5 Running in Cycle:        49900000, Inst:        86861501
2770360090500: system.switch_cpus: Raw Gem5 Running in Cycle:        50000000, Inst:        87079530
2770410090500: system.switch_cpus: Raw Gem5 Running in Cycle:        50100000, Inst:        87296876
2770460090500: system.switch_cpus: Raw Gem5 Running in Cycle:        50200000, Inst:        87527341
2770510090500: system.switch_cpus: Raw Gem5 Running in Cycle:        50300000, Inst:        87754322
2770560090500: system.switch_cpus: Raw Gem5 Running in Cycle:        50400000, Inst:        87975941
2770610090500: system.switch_cpus: Raw Gem5 Running in Cycle:        50500000, Inst:        88200375
2770660090500: system.switch_cpus: Raw Gem5 Running in Cycle:        50600000, Inst:        88418756
2770710090500: system.switch_cpus: Raw Gem5 Running in Cycle:        50700000, Inst:        88641659
2770760090500: system.switch_cpus: Raw Gem5 Running in Cycle:        50800000, Inst:        88869747
2770810090500: system.switch_cpus: Raw Gem5 Running in Cycle:        50900000, Inst:        89094139
2770860090500: system.switch_cpus: Raw Gem5 Running in Cycle:        51000000, Inst:        89313467
2770910090500: system.switch_cpus: Raw Gem5 Running in Cycle:        51100000, Inst:        89537777
2770960090500: system.switch_cpus: Raw Gem5 Running in Cycle:        51200000, Inst:        89754770
2771010090500: system.switch_cpus: Raw Gem5 Running in Cycle:        51300000, Inst:        89978227
2771060090500: system.switch_cpus: Raw Gem5 Running in Cycle:        51400000, Inst:        90211357
2771110090500: system.switch_cpus: Raw Gem5 Running in Cycle:        51500000, Inst:        90436093
2771160090500: system.switch_cpus: Raw Gem5 Running in Cycle:        51600000, Inst:        90659098
2771210090500: system.switch_cpus: Raw Gem5 Running in Cycle:        51700000, Inst:        90886629
2771260090500: system.switch_cpus: Raw Gem5 Running in Cycle:        51800000, Inst:        91110430
2771310090500: system.switch_cpus: Raw Gem5 Running in Cycle:        51900000, Inst:        91330509
2771360090500: system.switch_cpus: Raw Gem5 Running in Cycle:        52000000, Inst:        91548870
2771410090500: system.switch_cpus: Raw Gem5 Running in Cycle:        52100000, Inst:        91768767
2771460090500: system.switch_cpus: Raw Gem5 Running in Cycle:        52200000, Inst:        91993241
2771510090500: system.switch_cpus: Raw Gem5 Running in Cycle:        52300000, Inst:        92214852
2771560090500: system.switch_cpus: Raw Gem5 Running in Cycle:        52400000, Inst:        92437582
2771610090500: system.switch_cpus: Raw Gem5 Running in Cycle:        52500000, Inst:        92670230
2771660090500: system.switch_cpus: Raw Gem5 Running in Cycle:        52600000, Inst:        92895615
2771710090500: system.switch_cpus: Raw Gem5 Running in Cycle:        52700000, Inst:        93120967
2771760090500: system.switch_cpus: Raw Gem5 Running in Cycle:        52800000, Inst:        93339631
2771810090500: system.switch_cpus: Raw Gem5 Running in Cycle:        52900000, Inst:        93561430
2771860090500: system.switch_cpus: Raw Gem5 Running in Cycle:        53000000, Inst:        93782711
2771910090500: system.switch_cpus: Raw Gem5 Running in Cycle:        53100000, Inst:        94006043
2771960090500: system.switch_cpus: Raw Gem5 Running in Cycle:        53200000, Inst:        94220527
2772010090500: system.switch_cpus: Raw Gem5 Running in Cycle:        53300000, Inst:        94446280
2772060090500: system.switch_cpus: Raw Gem5 Running in Cycle:        53400000, Inst:        94666065
2772110090500: system.switch_cpus: Raw Gem5 Running in Cycle:        53500000, Inst:        94891432
2772160090500: system.switch_cpus: Raw Gem5 Running in Cycle:        53600000, Inst:        95120317
2772210090500: system.switch_cpus: Raw Gem5 Running in Cycle:        53700000, Inst:        95349288
2772260090500: system.switch_cpus: Raw Gem5 Running in Cycle:        53800000, Inst:        95572006
2772310090500: system.switch_cpus: Raw Gem5 Running in Cycle:        53900000, Inst:        95795153
2772360090500: system.switch_cpus: Raw Gem5 Running in Cycle:        54000000, Inst:        96015838
2772410090500: system.switch_cpus: Raw Gem5 Running in Cycle:        54100000, Inst:        96238728
2772460090500: system.switch_cpus: Raw Gem5 Running in Cycle:        54200000, Inst:        96464019
2772510090500: system.switch_cpus: Raw Gem5 Running in Cycle:        54300000, Inst:        96679282
2772560090500: system.switch_cpus: Raw Gem5 Running in Cycle:        54400000, Inst:        96902061
2772610090500: system.switch_cpus: Raw Gem5 Running in Cycle:        54500000, Inst:        97125102
2772660090500: system.switch_cpus: Raw Gem5 Running in Cycle:        54600000, Inst:        97346965
2772710090500: system.switch_cpus: Raw Gem5 Running in Cycle:        54700000, Inst:        97576089
2772760090500: system.switch_cpus: Raw Gem5 Running in Cycle:        54800000, Inst:        97806015
2772810090500: system.switch_cpus: Raw Gem5 Running in Cycle:        54900000, Inst:        98028953
2772860090500: system.switch_cpus: Raw Gem5 Running in Cycle:        55000000, Inst:        98254371
2772910090500: system.switch_cpus: Raw Gem5 Running in Cycle:        55100000, Inst:        98478951
2772960090500: system.switch_cpus: Raw Gem5 Running in Cycle:        55200000, Inst:        98696975
2773010090500: system.switch_cpus: Raw Gem5 Running in Cycle:        55300000, Inst:        98920946
2773060090500: system.switch_cpus: Raw Gem5 Running in Cycle:        55400000, Inst:        99147695
2773110090500: system.switch_cpus: Raw Gem5 Running in Cycle:        55500000, Inst:        99365645
2773160090500: system.switch_cpus: Raw Gem5 Running in Cycle:        55600000, Inst:        99586302
2773210090500: system.switch_cpus: Raw Gem5 Running in Cycle:        55700000, Inst:        99809358
Exiting @ tick 2773252276500 because a thread reached the max instruction count
end time:(year-mon-day hour-minute-second)19-03-30 23-08-00
