
******************************directory****************************
spec_dir: /home/cuihongwei/experiment/mcpat-gem5-master/spec2006/benchspec/CPU2006
run_dir:  /home/cuihongwei/experiment/mcpat-gem5-master/spec2006/benchspec/CPU2006/445.gobmk/run/run_base_ref_amd64.0001
gem5_dir: /home/cuihongwei/experiment/experiment-gem5/raw-gem5
gem5_output_dir: /home/cuihongwei/experiment/experiment-gem5/raw-gem5/output/445.gobmk/alpha-OLD-445.gobmk-input1-190330-205705
benchmark_output:/home/cuihongwei/experiment/experiment-gem5/raw-gem5/output/445.gobmk/alpha-OLD-445.gobmk-input1-190330-205705
checkpoint_dir:/home/cuihongwei/experiment/experiment-gem5/pubs-gem5/output/alpha-445.gobmk-checkpoint-input1

******************************benchmark****************************
target:     445.gobmk
executable: gobmk
args:       --quiet --mode gtp
input:      13x13.tst
output:     /home/cuihongwei/experiment/experiment-gem5/raw-gem5/output/445.gobmk/alpha-OLD-445.gobmk-input1-190330-205705/13x13.out
errout:     /home/cuihongwei/experiment/experiment-gem5/raw-gem5/output/445.gobmk/alpha-OLD-445.gobmk-input1-190330-205705/13x13.err

******************************gem5****************************
arch:       /home/cuihongwei/experiment/experiment-gem5/raw-gem5/build/ALPHA/gem5.opt
config:     /home/cuihongwei/experiment/experiment-gem5/raw-gem5/configs/example/se.py
args:       --num-cpus=1 --mem-size=8GB --caches --l1d_size=32kB --l1d_assoc=8 --l1i_size=32kB --l1i_assoc=8 --l2cache --l2_size=2MB --l2_assoc=16 --at-instruction --checkpoint-restore=5000000000 --maxinsts=100000000 --cpu-type=DerivO3CPU
debugFlag:  --debug-flags=ShowRunning

******************************simulation****************************
start time:(year-mon-day hour-minute-second)19-03-30 20-57-05
gem5 Simulator System.  http://gem5.org
gem5 is copyrighted software; use the --copyright option for details.

gem5 compiled Mar 30 2019 20:24:53
gem5 started Mar 30 2019 20:57:05
gem5 executing on mprc-R730, pid 31913
command line: /home/cuihongwei/experiment/experiment-gem5/raw-gem5/build/ALPHA/gem5.opt --outdir=/home/cuihongwei/experiment/experiment-gem5/raw-gem5/output/445.gobmk/alpha-OLD-445.gobmk-input1-190330-205705 --debug-flags=ShowRunning /home/cuihongwei/experiment/experiment-gem5/raw-gem5/configs/example/se.py --num-cpus=1 --mem-size=8GB --caches --l1d_size=32kB --l1d_assoc=8 --l1i_size=32kB --l1i_assoc=8 --l2cache --l2_size=2MB --l2_assoc=16 --at-instruction --checkpoint-restore=5000000000 --maxinsts=100000000 --cpu-type=DerivO3CPU --checkpoint-dir=/home/cuihongwei/experiment/experiment-gem5/pubs-gem5/output/alpha-445.gobmk-checkpoint-input1 --cmd=/home/cuihongwei/experiment/mcpat-gem5-master/spec2006/benchspec/CPU2006/445.gobmk/run/build_peak_alpha.0001/gobmk '--options=--quiet --mode gtp' --output=/home/cuihongwei/experiment/experiment-gem5/raw-gem5/output/445.gobmk/alpha-OLD-445.gobmk-input1-190330-205705/13x13.out --input=13x13.tst --errout=/home/cuihongwei/experiment/experiment-gem5/raw-gem5/output/445.gobmk/alpha-OLD-445.gobmk-input1-190330-205705/13x13.err

Global frequency set at 1000000000000 ticks per second
Switch at curTick count:10000
Switched CPUS @ tick 2087848960000
switching cpus
**** REAL SIMULATION ****
2087848960500: system.switch_cpus: Raw Gem5 Running in Cycle:               0, Inst:               0
2087923857500: system.switch_cpus: Raw Gem5 Running in Cycle:          100000, Inst:           95899
2087976056000: system.switch_cpus: Raw Gem5 Running in Cycle:          200000, Inst:          214729
2088031950500: system.switch_cpus: Raw Gem5 Running in Cycle:          300000, Inst:          352174
2088093501500: system.switch_cpus: Raw Gem5 Running in Cycle:          400000, Inst:          468317
2088143542500: system.switch_cpus: Raw Gem5 Running in Cycle:          500000, Inst:          614208
2088198377000: system.switch_cpus: Raw Gem5 Running in Cycle:          600000, Inst:          745810
2088251461000: system.switch_cpus: Raw Gem5 Running in Cycle:          700000, Inst:          872257
2088301524000: system.switch_cpus: Raw Gem5 Running in Cycle:          800000, Inst:         1022663
2088352258500: system.switch_cpus: Raw Gem5 Running in Cycle:          900000, Inst:         1161510
2088402975000: system.switch_cpus: Raw Gem5 Running in Cycle:         1000000, Inst:         1321898
2088453043500: system.switch_cpus: Raw Gem5 Running in Cycle:         1100000, Inst:         1476134
2088504643000: system.switch_cpus: Raw Gem5 Running in Cycle:         1200000, Inst:         1592240
2088554694500: system.switch_cpus: Raw Gem5 Running in Cycle:         1300000, Inst:         1749998
2088606458500: system.switch_cpus: Raw Gem5 Running in Cycle:         1400000, Inst:         1892883
2088656620500: system.switch_cpus: Raw Gem5 Running in Cycle:         1500000, Inst:         2036844
2088706678500: system.switch_cpus: Raw Gem5 Running in Cycle:         1600000, Inst:         2195217
2088757020500: system.switch_cpus: Raw Gem5 Running in Cycle:         1700000, Inst:         2349125
2088807782500: system.switch_cpus: Raw Gem5 Running in Cycle:         1800000, Inst:         2492702
2088857844500: system.switch_cpus: Raw Gem5 Running in Cycle:         1900000, Inst:         2663654
2088908258500: system.switch_cpus: Raw Gem5 Running in Cycle:         2000000, Inst:         2797208
2088958296000: system.switch_cpus: Raw Gem5 Running in Cycle:         2100000, Inst:         2955341
2089008581500: system.switch_cpus: Raw Gem5 Running in Cycle:         2200000, Inst:         3068252
2089058629000: system.switch_cpus: Raw Gem5 Running in Cycle:         2300000, Inst:         3234728
2089109447000: system.switch_cpus: Raw Gem5 Running in Cycle:         2400000, Inst:         3380635
2089160248000: system.switch_cpus: Raw Gem5 Running in Cycle:         2500000, Inst:         3546909
2089210346000: system.switch_cpus: Raw Gem5 Running in Cycle:         2600000, Inst:         3672982
2089260387000: system.switch_cpus: Raw Gem5 Running in Cycle:         2700000, Inst:         3844535
2089310501500: system.switch_cpus: Raw Gem5 Running in Cycle:         2800000, Inst:         3963595
2089360555500: system.switch_cpus: Raw Gem5 Running in Cycle:         2900000, Inst:         4133919
2089410638000: system.switch_cpus: Raw Gem5 Running in Cycle:         3000000, Inst:         4285227
2089460693000: system.switch_cpus: Raw Gem5 Running in Cycle:         3100000, Inst:         4443920
2089510751500: system.switch_cpus: Raw Gem5 Running in Cycle:         3200000, Inst:         4598359
2089560829500: system.switch_cpus: Raw Gem5 Running in Cycle:         3300000, Inst:         4747761
2089610889500: system.switch_cpus: Raw Gem5 Running in Cycle:         3400000, Inst:         4920066
2089661580000: system.switch_cpus: Raw Gem5 Running in Cycle:         3500000, Inst:         5062502
2089712377000: system.switch_cpus: Raw Gem5 Running in Cycle:         3600000, Inst:         5212593
2089762455000: system.switch_cpus: Raw Gem5 Running in Cycle:         3700000, Inst:         5361431
2089812543500: system.switch_cpus: Raw Gem5 Running in Cycle:         3800000, Inst:         5490541
2089863281000: system.switch_cpus: Raw Gem5 Running in Cycle:         3900000, Inst:         5649166
2089913634000: system.switch_cpus: Raw Gem5 Running in Cycle:         4000000, Inst:         5769242
2089963681000: system.switch_cpus: Raw Gem5 Running in Cycle:         4100000, Inst:         5928241
2090013788000: system.switch_cpus: Raw Gem5 Running in Cycle:         4200000, Inst:         6052779
2090063842000: system.switch_cpus: Raw Gem5 Running in Cycle:         4300000, Inst:         6209058
2090113952000: system.switch_cpus: Raw Gem5 Running in Cycle:         4400000, Inst:         6363470
2090164039500: system.switch_cpus: Raw Gem5 Running in Cycle:         4500000, Inst:         6503302
2090214097000: system.switch_cpus: Raw Gem5 Running in Cycle:         4600000, Inst:         6663324
2090264184000: system.switch_cpus: Raw Gem5 Running in Cycle:         4700000, Inst:         6820344
2090314254500: system.switch_cpus: Raw Gem5 Running in Cycle:         4800000, Inst:         6966170
2090364293500: system.switch_cpus: Raw Gem5 Running in Cycle:         4900000, Inst:         7126696
2090414396000: system.switch_cpus: Raw Gem5 Running in Cycle:         5000000, Inst:         7261874
2090464469500: system.switch_cpus: Raw Gem5 Running in Cycle:         5100000, Inst:         7405308
2090514539000: system.switch_cpus: Raw Gem5 Running in Cycle:         5200000, Inst:         7543488
2090564574500: system.switch_cpus: Raw Gem5 Running in Cycle:         5300000, Inst:         7711082
2090615261500: system.switch_cpus: Raw Gem5 Running in Cycle:         5400000, Inst:         7821261
2090665293500: system.switch_cpus: Raw Gem5 Running in Cycle:         5500000, Inst:         7985397
2090715376500: system.switch_cpus: Raw Gem5 Running in Cycle:         5600000, Inst:         8121576
2090765426500: system.switch_cpus: Raw Gem5 Running in Cycle:         5700000, Inst:         8270216
2090815466000: system.switch_cpus: Raw Gem5 Running in Cycle:         5800000, Inst:         8433361
2090865554500: system.switch_cpus: Raw Gem5 Running in Cycle:         5900000, Inst:         8558514
2090915589500: system.switch_cpus: Raw Gem5 Running in Cycle:         6000000, Inst:         8723171
2090965659000: system.switch_cpus: Raw Gem5 Running in Cycle:         6100000, Inst:         8861091
2091015704500: system.switch_cpus: Raw Gem5 Running in Cycle:         6200000, Inst:         9025125
2091065740000: system.switch_cpus: Raw Gem5 Running in Cycle:         6300000, Inst:         9175042
2091115850000: system.switch_cpus: Raw Gem5 Running in Cycle:         6400000, Inst:         9285585
2091165892000: system.switch_cpus: Raw Gem5 Running in Cycle:         6500000, Inst:         9446889
2091215953000: system.switch_cpus: Raw Gem5 Running in Cycle:         6600000, Inst:         9584615
2091266006000: system.switch_cpus: Raw Gem5 Running in Cycle:         6700000, Inst:         9745903
2091316037000: system.switch_cpus: Raw Gem5 Running in Cycle:         6800000, Inst:         9903354
2091366129000: system.switch_cpus: Raw Gem5 Running in Cycle:         6900000, Inst:        10024931
2091416168000: system.switch_cpus: Raw Gem5 Running in Cycle:         7000000, Inst:        10192711
2091466263500: system.switch_cpus: Raw Gem5 Running in Cycle:         7100000, Inst:        10326501
2091516329500: system.switch_cpus: Raw Gem5 Running in Cycle:         7200000, Inst:        10490874
2091566427500: system.switch_cpus: Raw Gem5 Running in Cycle:         7300000, Inst:        10612005
2091616480500: system.switch_cpus: Raw Gem5 Running in Cycle:         7400000, Inst:        10768632
2091666551500: system.switch_cpus: Raw Gem5 Running in Cycle:         7500000, Inst:        10908827
2091716615000: system.switch_cpus: Raw Gem5 Running in Cycle:         7600000, Inst:        11072467
2091766697500: system.switch_cpus: Raw Gem5 Running in Cycle:         7700000, Inst:        11203743
2091816742000: system.switch_cpus: Raw Gem5 Running in Cycle:         7800000, Inst:        11360928
2091866811500: system.switch_cpus: Raw Gem5 Running in Cycle:         7900000, Inst:        11503321
2091916878000: system.switch_cpus: Raw Gem5 Running in Cycle:         8000000, Inst:        11658769
2091966927000: system.switch_cpus: Raw Gem5 Running in Cycle:         8100000, Inst:        11807149
2092017632000: system.switch_cpus: Raw Gem5 Running in Cycle:         8200000, Inst:        11911881
2092067663000: system.switch_cpus: Raw Gem5 Running in Cycle:         8300000, Inst:        12073350
2092117702000: system.switch_cpus: Raw Gem5 Running in Cycle:         8400000, Inst:        12222131
2092167788000: system.switch_cpus: Raw Gem5 Running in Cycle:         8500000, Inst:        12351566
2092217832000: system.switch_cpus: Raw Gem5 Running in Cycle:         8600000, Inst:        12505163
2092267932000: system.switch_cpus: Raw Gem5 Running in Cycle:         8700000, Inst:        12635018
2092317963500: system.switch_cpus: Raw Gem5 Running in Cycle:         8800000, Inst:        12799782
2092368062500: system.switch_cpus: Raw Gem5 Running in Cycle:         8900000, Inst:        12941732
2092418107000: system.switch_cpus: Raw Gem5 Running in Cycle:         9000000, Inst:        13105610
2092468178500: system.switch_cpus: Raw Gem5 Running in Cycle:         9100000, Inst:        13244204
2092518296000: system.switch_cpus: Raw Gem5 Running in Cycle:         9200000, Inst:        13408068
2092568381000: system.switch_cpus: Raw Gem5 Running in Cycle:         9300000, Inst:        13544438
2092618619000: system.switch_cpus: Raw Gem5 Running in Cycle:         9400000, Inst:        13697741
2092668687000: system.switch_cpus: Raw Gem5 Running in Cycle:         9500000, Inst:        13840701
2092718726500: system.switch_cpus: Raw Gem5 Running in Cycle:         9600000, Inst:        14002064
2092768792500: system.switch_cpus: Raw Gem5 Running in Cycle:         9700000, Inst:        14150870
2092818823500: system.switch_cpus: Raw Gem5 Running in Cycle:         9800000, Inst:        14315151
2092868879000: system.switch_cpus: Raw Gem5 Running in Cycle:         9900000, Inst:        14477749
2092918947500: system.switch_cpus: Raw Gem5 Running in Cycle:        10000000, Inst:        14619436
2092968979000: system.switch_cpus: Raw Gem5 Running in Cycle:        10100000, Inst:        14780860
2093019073500: system.switch_cpus: Raw Gem5 Running in Cycle:        10200000, Inst:        14923196
2093069102000: system.switch_cpus: Raw Gem5 Running in Cycle:        10300000, Inst:        15092418
2093119162500: system.switch_cpus: Raw Gem5 Running in Cycle:        10400000, Inst:        15236324
2093169204500: system.switch_cpus: Raw Gem5 Running in Cycle:        10500000, Inst:        15400369
2093219252000: system.switch_cpus: Raw Gem5 Running in Cycle:        10600000, Inst:        15556116
2093269348500: system.switch_cpus: Raw Gem5 Running in Cycle:        10700000, Inst:        15705736
2093319414500: system.switch_cpus: Raw Gem5 Running in Cycle:        10800000, Inst:        15855376
2093369483000: system.switch_cpus: Raw Gem5 Running in Cycle:        10900000, Inst:        16003688
2093420114500: system.switch_cpus: Raw Gem5 Running in Cycle:        11000000, Inst:        16164734
2093470213000: system.switch_cpus: Raw Gem5 Running in Cycle:        11100000, Inst:        16303191
2093520254500: system.switch_cpus: Raw Gem5 Running in Cycle:        11200000, Inst:        16467587
2093570326000: system.switch_cpus: Raw Gem5 Running in Cycle:        11300000, Inst:        16625800
2093620377500: system.switch_cpus: Raw Gem5 Running in Cycle:        11400000, Inst:        16786433
2093670511500: system.switch_cpus: Raw Gem5 Running in Cycle:        11500000, Inst:        16935412
2093720578500: system.switch_cpus: Raw Gem5 Running in Cycle:        11600000, Inst:        17081190
2093770640000: system.switch_cpus: Raw Gem5 Running in Cycle:        11700000, Inst:        17247025
2093820732500: system.switch_cpus: Raw Gem5 Running in Cycle:        11800000, Inst:        17379613
2093870765500: system.switch_cpus: Raw Gem5 Running in Cycle:        11900000, Inst:        17541606
2093920797500: system.switch_cpus: Raw Gem5 Running in Cycle:        12000000, Inst:        17699828
2093970840500: system.switch_cpus: Raw Gem5 Running in Cycle:        12100000, Inst:        17851588
2094020955000: system.switch_cpus: Raw Gem5 Running in Cycle:        12200000, Inst:        17970621
2094070989500: system.switch_cpus: Raw Gem5 Running in Cycle:        12300000, Inst:        18132548
2094121068000: system.switch_cpus: Raw Gem5 Running in Cycle:        12400000, Inst:        18268872
2094171852000: system.switch_cpus: Raw Gem5 Running in Cycle:        12500000, Inst:        18430610
2094221882500: system.switch_cpus: Raw Gem5 Running in Cycle:        12600000, Inst:        18576509
2094271958000: system.switch_cpus: Raw Gem5 Running in Cycle:        12700000, Inst:        18714298
2094321983000: system.switch_cpus: Raw Gem5 Running in Cycle:        12800000, Inst:        18882045
2094372051000: system.switch_cpus: Raw Gem5 Running in Cycle:        12900000, Inst:        19023676
2094422103500: system.switch_cpus: Raw Gem5 Running in Cycle:        13000000, Inst:        19182747
2094472183000: system.switch_cpus: Raw Gem5 Running in Cycle:        13100000, Inst:        19308739
2094522256000: system.switch_cpus: Raw Gem5 Running in Cycle:        13200000, Inst:        19462111
2094572283500: system.switch_cpus: Raw Gem5 Running in Cycle:        13300000, Inst:        19625550
2094622338000: system.switch_cpus: Raw Gem5 Running in Cycle:        13400000, Inst:        19771471
2094672453500: system.switch_cpus: Raw Gem5 Running in Cycle:        13500000, Inst:        19882509
2094722490500: system.switch_cpus: Raw Gem5 Running in Cycle:        13600000, Inst:        20053360
2094772599500: system.switch_cpus: Raw Gem5 Running in Cycle:        13700000, Inst:        20183448
2094822629500: system.switch_cpus: Raw Gem5 Running in Cycle:        13800000, Inst:        20346065
2094872701500: system.switch_cpus: Raw Gem5 Running in Cycle:        13900000, Inst:        20477723
2094922727000: system.switch_cpus: Raw Gem5 Running in Cycle:        14000000, Inst:        20642577
2094972798000: system.switch_cpus: Raw Gem5 Running in Cycle:        14100000, Inst:        20778675
2095022845500: system.switch_cpus: Raw Gem5 Running in Cycle:        14200000, Inst:        20947192
2095072948000: system.switch_cpus: Raw Gem5 Running in Cycle:        14300000, Inst:        21079652
2095122982500: system.switch_cpus: Raw Gem5 Running in Cycle:        14400000, Inst:        21253131
2095173070000: system.switch_cpus: Raw Gem5 Running in Cycle:        14500000, Inst:        21393948
2095223121500: system.switch_cpus: Raw Gem5 Running in Cycle:        14600000, Inst:        21557396
2095273191500: system.switch_cpus: Raw Gem5 Running in Cycle:        14700000, Inst:        21683885
2095323268500: system.switch_cpus: Raw Gem5 Running in Cycle:        14800000, Inst:        21832464
2095373356500: system.switch_cpus: Raw Gem5 Running in Cycle:        14900000, Inst:        21962454
2095423399000: system.switch_cpus: Raw Gem5 Running in Cycle:        15000000, Inst:        22124469
2095473511000: system.switch_cpus: Raw Gem5 Running in Cycle:        15100000, Inst:        22259540
2095523597000: system.switch_cpus: Raw Gem5 Running in Cycle:        15200000, Inst:        22373015
2095573642500: system.switch_cpus: Raw Gem5 Running in Cycle:        15300000, Inst:        22533314
2095623718500: system.switch_cpus: Raw Gem5 Running in Cycle:        15400000, Inst:        22687095
2095673757500: system.switch_cpus: Raw Gem5 Running in Cycle:        15500000, Inst:        22832220
2095723896500: system.switch_cpus: Raw Gem5 Running in Cycle:        15600000, Inst:        22937950
2095775113000: system.switch_cpus: Raw Gem5 Running in Cycle:        15700000, Inst:        23053035
2095825579500: system.switch_cpus: Raw Gem5 Running in Cycle:        15800000, Inst:        23167412
2095875757500: system.switch_cpus: Raw Gem5 Running in Cycle:        15900000, Inst:        23293416
2095925798000: system.switch_cpus: Raw Gem5 Running in Cycle:        16000000, Inst:        23451296
2095975881000: system.switch_cpus: Raw Gem5 Running in Cycle:        16100000, Inst:        23570168
2096026109000: system.switch_cpus: Raw Gem5 Running in Cycle:        16200000, Inst:        23691770
2096076177000: system.switch_cpus: Raw Gem5 Running in Cycle:        16300000, Inst:        23833913
2096126214500: system.switch_cpus: Raw Gem5 Running in Cycle:        16400000, Inst:        23991766
2096176318500: system.switch_cpus: Raw Gem5 Running in Cycle:        16500000, Inst:        24116457
2096226405000: system.switch_cpus: Raw Gem5 Running in Cycle:        16600000, Inst:        24232571
2096276451500: system.switch_cpus: Raw Gem5 Running in Cycle:        16700000, Inst:        24354499
2096326542000: system.switch_cpus: Raw Gem5 Running in Cycle:        16800000, Inst:        24468594
2096376596500: system.switch_cpus: Raw Gem5 Running in Cycle:        16900000, Inst:        24617421
2096426652500: system.switch_cpus: Raw Gem5 Running in Cycle:        17000000, Inst:        24760900
2096476980500: system.switch_cpus: Raw Gem5 Running in Cycle:        17100000, Inst:        24874397
2096527508000: system.switch_cpus: Raw Gem5 Running in Cycle:        17200000, Inst:        24994293
2096577584000: system.switch_cpus: Raw Gem5 Running in Cycle:        17300000, Inst:        25130213
2096627652500: system.switch_cpus: Raw Gem5 Running in Cycle:        17400000, Inst:        25288250
2096677742000: system.switch_cpus: Raw Gem5 Running in Cycle:        17500000, Inst:        25406535
2096727821500: system.switch_cpus: Raw Gem5 Running in Cycle:        17600000, Inst:        25538472
2096777857500: system.switch_cpus: Raw Gem5 Running in Cycle:        17700000, Inst:        25699973
2096827925500: system.switch_cpus: Raw Gem5 Running in Cycle:        17800000, Inst:        25840305
2096877951500: system.switch_cpus: Raw Gem5 Running in Cycle:        17900000, Inst:        26011399
2096927990000: system.switch_cpus: Raw Gem5 Running in Cycle:        18000000, Inst:        26176884
2096978025500: system.switch_cpus: Raw Gem5 Running in Cycle:        18100000, Inst:        26346382
2097028090500: system.switch_cpus: Raw Gem5 Running in Cycle:        18200000, Inst:        26478237
2097078159500: system.switch_cpus: Raw Gem5 Running in Cycle:        18300000, Inst:        26642484
2097128244000: system.switch_cpus: Raw Gem5 Running in Cycle:        18400000, Inst:        26751225
2097178327000: system.switch_cpus: Raw Gem5 Running in Cycle:        18500000, Inst:        26871403
2097228386000: system.switch_cpus: Raw Gem5 Running in Cycle:        18600000, Inst:        26991299
2097278477000: system.switch_cpus: Raw Gem5 Running in Cycle:        18700000, Inst:        27122731
2097328515500: system.switch_cpus: Raw Gem5 Running in Cycle:        18800000, Inst:        27280913
2097378593500: system.switch_cpus: Raw Gem5 Running in Cycle:        18900000, Inst:        27423926
2097428669500: system.switch_cpus: Raw Gem5 Running in Cycle:        19000000, Inst:        27548166
2097478741500: system.switch_cpus: Raw Gem5 Running in Cycle:        19100000, Inst:        27669023
2097528837000: system.switch_cpus: Raw Gem5 Running in Cycle:        19200000, Inst:        27807682
2097581160500: system.switch_cpus: Raw Gem5 Running in Cycle:        19300000, Inst:        27953768
2097632234500: system.switch_cpus: Raw Gem5 Running in Cycle:        19400000, Inst:        28093619
2097682288500: system.switch_cpus: Raw Gem5 Running in Cycle:        19500000, Inst:        28244615
2097732353000: system.switch_cpus: Raw Gem5 Running in Cycle:        19600000, Inst:        28411145
2097782416500: system.switch_cpus: Raw Gem5 Running in Cycle:        19700000, Inst:        28590111
2097832458000: system.switch_cpus: Raw Gem5 Running in Cycle:        19800000, Inst:        28729462
2097882513000: system.switch_cpus: Raw Gem5 Running in Cycle:        19900000, Inst:        28871946
2097933001500: system.switch_cpus: Raw Gem5 Running in Cycle:        20000000, Inst:        28983154
2097983417500: system.switch_cpus: Raw Gem5 Running in Cycle:        20100000, Inst:        29097794
2098033498000: system.switch_cpus: Raw Gem5 Running in Cycle:        20200000, Inst:        29230225
2098083542000: system.switch_cpus: Raw Gem5 Running in Cycle:        20300000, Inst:        29362035
2098133703000: system.switch_cpus: Raw Gem5 Running in Cycle:        20400000, Inst:        29495152
2098183739000: system.switch_cpus: Raw Gem5 Running in Cycle:        20500000, Inst:        29667474
2098233796000: system.switch_cpus: Raw Gem5 Running in Cycle:        20600000, Inst:        29832460
2098283840500: system.switch_cpus: Raw Gem5 Running in Cycle:        20700000, Inst:        29991689
2098333910500: system.switch_cpus: Raw Gem5 Running in Cycle:        20800000, Inst:        30107610
2098383998000: system.switch_cpus: Raw Gem5 Running in Cycle:        20900000, Inst:        30232828
2098434071500: system.switch_cpus: Raw Gem5 Running in Cycle:        21000000, Inst:        30355517
2098484138500: system.switch_cpus: Raw Gem5 Running in Cycle:        21100000, Inst:        30485251
2098534210000: system.switch_cpus: Raw Gem5 Running in Cycle:        21200000, Inst:        30619417
2098584227500: system.switch_cpus: Raw Gem5 Running in Cycle:        21300000, Inst:        30787211
2098634278000: system.switch_cpus: Raw Gem5 Running in Cycle:        21400000, Inst:        30937158
2098684590000: system.switch_cpus: Raw Gem5 Running in Cycle:        21500000, Inst:        31085707
2098734670500: system.switch_cpus: Raw Gem5 Running in Cycle:        21600000, Inst:        31226220
2098784737000: system.switch_cpus: Raw Gem5 Running in Cycle:        21700000, Inst:        31354941
2098834815000: system.switch_cpus: Raw Gem5 Running in Cycle:        21800000, Inst:        31481652
2098884868000: system.switch_cpus: Raw Gem5 Running in Cycle:        21900000, Inst:        31617214
2098934974500: system.switch_cpus: Raw Gem5 Running in Cycle:        22000000, Inst:        31751893
2098985004500: system.switch_cpus: Raw Gem5 Running in Cycle:        22100000, Inst:        31906782
2099035105000: system.switch_cpus: Raw Gem5 Running in Cycle:        22200000, Inst:        32021850
2099085925000: system.switch_cpus: Raw Gem5 Running in Cycle:        22300000, Inst:        32164684
2099136005000: system.switch_cpus: Raw Gem5 Running in Cycle:        22400000, Inst:        32287763
2099186056000: system.switch_cpus: Raw Gem5 Running in Cycle:        22500000, Inst:        32419967
2099236105000: system.switch_cpus: Raw Gem5 Running in Cycle:        22600000, Inst:        32579487
2099286129500: system.switch_cpus: Raw Gem5 Running in Cycle:        22700000, Inst:        32741358
2099336208000: system.switch_cpus: Raw Gem5 Running in Cycle:        22800000, Inst:        32886890
2099386303000: system.switch_cpus: Raw Gem5 Running in Cycle:        22900000, Inst:        33037075
2099436378000: system.switch_cpus: Raw Gem5 Running in Cycle:        23000000, Inst:        33163390
2099486458500: system.switch_cpus: Raw Gem5 Running in Cycle:        23100000, Inst:        33296965
2099536533500: system.switch_cpus: Raw Gem5 Running in Cycle:        23200000, Inst:        33420262
2099586620500: system.switch_cpus: Raw Gem5 Running in Cycle:        23300000, Inst:        33565790
2099636683000: system.switch_cpus: Raw Gem5 Running in Cycle:        23400000, Inst:        33709067
2099686813000: system.switch_cpus: Raw Gem5 Running in Cycle:        23500000, Inst:        33829398
2099736902000: system.switch_cpus: Raw Gem5 Running in Cycle:        23600000, Inst:        33953254
2099786953000: system.switch_cpus: Raw Gem5 Running in Cycle:        23700000, Inst:        34083793
2099837266500: system.switch_cpus: Raw Gem5 Running in Cycle:        23800000, Inst:        34221067
2099887292000: system.switch_cpus: Raw Gem5 Running in Cycle:        23900000, Inst:        34381958
2099939676500: system.switch_cpus: Raw Gem5 Running in Cycle:        24000000, Inst:        34495955
2099989739500: system.switch_cpus: Raw Gem5 Running in Cycle:        24100000, Inst:        34620923
2100039813000: system.switch_cpus: Raw Gem5 Running in Cycle:        24200000, Inst:        34748887
2100089853000: system.switch_cpus: Raw Gem5 Running in Cycle:        24300000, Inst:        34916471
2100139911000: system.switch_cpus: Raw Gem5 Running in Cycle:        24400000, Inst:        35053102
2100189994500: system.switch_cpus: Raw Gem5 Running in Cycle:        24500000, Inst:        35176182
2100240059000: system.switch_cpus: Raw Gem5 Running in Cycle:        24600000, Inst:        35294087
2100290141000: system.switch_cpus: Raw Gem5 Running in Cycle:        24700000, Inst:        35425295
2100340253500: system.switch_cpus: Raw Gem5 Running in Cycle:        24800000, Inst:        35552620
2100390291000: system.switch_cpus: Raw Gem5 Running in Cycle:        24900000, Inst:        35713791
2100440431500: system.switch_cpus: Raw Gem5 Running in Cycle:        25000000, Inst:        35824620
2100490544500: system.switch_cpus: Raw Gem5 Running in Cycle:        25100000, Inst:        35976465
2100540637500: system.switch_cpus: Raw Gem5 Running in Cycle:        25200000, Inst:        36120474
2100590718000: system.switch_cpus: Raw Gem5 Running in Cycle:        25300000, Inst:        36268062
2100640762500: system.switch_cpus: Raw Gem5 Running in Cycle:        25400000, Inst:        36436329
2100690954500: system.switch_cpus: Raw Gem5 Running in Cycle:        25500000, Inst:        36558448
2100740996000: system.switch_cpus: Raw Gem5 Running in Cycle:        25600000, Inst:        36726359
2100791080000: system.switch_cpus: Raw Gem5 Running in Cycle:        25700000, Inst:        36883875
2100841157000: system.switch_cpus: Raw Gem5 Running in Cycle:        25800000, Inst:        37040955
2100891195500: system.switch_cpus: Raw Gem5 Running in Cycle:        25900000, Inst:        37203145
2100941301500: system.switch_cpus: Raw Gem5 Running in Cycle:        26000000, Inst:        37337677
2100991325000: system.switch_cpus: Raw Gem5 Running in Cycle:        26100000, Inst:        37501980
2101041423500: system.switch_cpus: Raw Gem5 Running in Cycle:        26200000, Inst:        37641499
2101091502500: system.switch_cpus: Raw Gem5 Running in Cycle:        26300000, Inst:        37801580
2101141613000: system.switch_cpus: Raw Gem5 Running in Cycle:        26400000, Inst:        37948256
2101191650000: system.switch_cpus: Raw Gem5 Running in Cycle:        26500000, Inst:        38110204
2101241732500: system.switch_cpus: Raw Gem5 Running in Cycle:        26600000, Inst:        38256813
2101291806500: system.switch_cpus: Raw Gem5 Running in Cycle:        26700000, Inst:        38414910
2101341903500: system.switch_cpus: Raw Gem5 Running in Cycle:        26800000, Inst:        38562545
2101391926000: system.switch_cpus: Raw Gem5 Running in Cycle:        26900000, Inst:        38732806
2101441991500: system.switch_cpus: Raw Gem5 Running in Cycle:        27000000, Inst:        38895300
2101492097500: system.switch_cpus: Raw Gem5 Running in Cycle:        27100000, Inst:        39022371
2101542131500: system.switch_cpus: Raw Gem5 Running in Cycle:        27200000, Inst:        39187889
2101592220500: system.switch_cpus: Raw Gem5 Running in Cycle:        27300000, Inst:        39328527
2101642265500: system.switch_cpus: Raw Gem5 Running in Cycle:        27400000, Inst:        39477716
2101692367000: system.switch_cpus: Raw Gem5 Running in Cycle:        27500000, Inst:        39619821
2101742402000: system.switch_cpus: Raw Gem5 Running in Cycle:        27600000, Inst:        39783920
2101792488000: system.switch_cpus: Raw Gem5 Running in Cycle:        27700000, Inst:        39926001
2101842533000: system.switch_cpus: Raw Gem5 Running in Cycle:        27800000, Inst:        40089605
2101892608000: system.switch_cpus: Raw Gem5 Running in Cycle:        27900000, Inst:        40245928
2101942645500: system.switch_cpus: Raw Gem5 Running in Cycle:        28000000, Inst:        40407879
2101992694000: system.switch_cpus: Raw Gem5 Running in Cycle:        28100000, Inst:        40565967
2102042811000: system.switch_cpus: Raw Gem5 Running in Cycle:        28200000, Inst:        40710629
2102092862500: system.switch_cpus: Raw Gem5 Running in Cycle:        28300000, Inst:        40875199
2102142990500: system.switch_cpus: Raw Gem5 Running in Cycle:        28400000, Inst:        41004934
2102193045500: system.switch_cpus: Raw Gem5 Running in Cycle:        28500000, Inst:        41168798
2102243150500: system.switch_cpus: Raw Gem5 Running in Cycle:        28600000, Inst:        41319995
2102293227000: system.switch_cpus: Raw Gem5 Running in Cycle:        28700000, Inst:        41470874
2102343277500: system.switch_cpus: Raw Gem5 Running in Cycle:        28800000, Inst:        41631489
2102393374500: system.switch_cpus: Raw Gem5 Running in Cycle:        28900000, Inst:        41791529
2102443438500: system.switch_cpus: Raw Gem5 Running in Cycle:        29000000, Inst:        41942788
2102493495500: system.switch_cpus: Raw Gem5 Running in Cycle:        29100000, Inst:        42110300
2102543604000: system.switch_cpus: Raw Gem5 Running in Cycle:        29200000, Inst:        42271021
2102593702000: system.switch_cpus: Raw Gem5 Running in Cycle:        29300000, Inst:        42401870
2102643778000: system.switch_cpus: Raw Gem5 Running in Cycle:        29400000, Inst:        42562936
2102693847000: system.switch_cpus: Raw Gem5 Running in Cycle:        29500000, Inst:        42720644
2102743919500: system.switch_cpus: Raw Gem5 Running in Cycle:        29600000, Inst:        42867149
2102793980000: system.switch_cpus: Raw Gem5 Running in Cycle:        29700000, Inst:        43028426
2102844059500: system.switch_cpus: Raw Gem5 Running in Cycle:        29800000, Inst:        43189591
2102894124500: system.switch_cpus: Raw Gem5 Running in Cycle:        29900000, Inst:        43358444
2102944197000: system.switch_cpus: Raw Gem5 Running in Cycle:        30000000, Inst:        43503168
2102994242500: system.switch_cpus: Raw Gem5 Running in Cycle:        30100000, Inst:        43673311
2103044373000: system.switch_cpus: Raw Gem5 Running in Cycle:        30200000, Inst:        43807631
2103094432000: system.switch_cpus: Raw Gem5 Running in Cycle:        30300000, Inst:        43960211
2103144528500: system.switch_cpus: Raw Gem5 Running in Cycle:        30400000, Inst:        44100980
2103194558500: system.switch_cpus: Raw Gem5 Running in Cycle:        30500000, Inst:        44277887
2103244657500: system.switch_cpus: Raw Gem5 Running in Cycle:        30600000, Inst:        44419602
2103294705500: system.switch_cpus: Raw Gem5 Running in Cycle:        30700000, Inst:        44584533
2103344752500: system.switch_cpus: Raw Gem5 Running in Cycle:        30800000, Inst:        44746836
2103394800000: system.switch_cpus: Raw Gem5 Running in Cycle:        30900000, Inst:        44900382
2103444893000: system.switch_cpus: Raw Gem5 Running in Cycle:        31000000, Inst:        45061603
2103494913500: system.switch_cpus: Raw Gem5 Running in Cycle:        31100000, Inst:        45237084
2103545012000: system.switch_cpus: Raw Gem5 Running in Cycle:        31200000, Inst:        45373483
2103595069000: system.switch_cpus: Raw Gem5 Running in Cycle:        31300000, Inst:        45531765
2103645163500: system.switch_cpus: Raw Gem5 Running in Cycle:        31400000, Inst:        45672203
2103695199000: system.switch_cpus: Raw Gem5 Running in Cycle:        31500000, Inst:        45845234
2103745288000: system.switch_cpus: Raw Gem5 Running in Cycle:        31600000, Inst:        45993995
2103795342500: system.switch_cpus: Raw Gem5 Running in Cycle:        31700000, Inst:        46157263
2103845414500: system.switch_cpus: Raw Gem5 Running in Cycle:        31800000, Inst:        46309902
2103895476000: system.switch_cpus: Raw Gem5 Running in Cycle:        31900000, Inst:        46475970
2103945530500: system.switch_cpus: Raw Gem5 Running in Cycle:        32000000, Inst:        46630725
2103995606500: system.switch_cpus: Raw Gem5 Running in Cycle:        32100000, Inst:        46773193
2104045688000: system.switch_cpus: Raw Gem5 Running in Cycle:        32200000, Inst:        46916227
2104095713500: system.switch_cpus: Raw Gem5 Running in Cycle:        32300000, Inst:        47079506
2104145815500: system.switch_cpus: Raw Gem5 Running in Cycle:        32400000, Inst:        47214550
2104195870500: system.switch_cpus: Raw Gem5 Running in Cycle:        32500000, Inst:        47380121
2104245969500: system.switch_cpus: Raw Gem5 Running in Cycle:        32600000, Inst:        47509265
2104296000500: system.switch_cpus: Raw Gem5 Running in Cycle:        32700000, Inst:        47678604
2104346062000: system.switch_cpus: Raw Gem5 Running in Cycle:        32800000, Inst:        47829755
2104396094500: system.switch_cpus: Raw Gem5 Running in Cycle:        32900000, Inst:        48005466
2104446142000: system.switch_cpus: Raw Gem5 Running in Cycle:        33000000, Inst:        48173737
2104496179000: system.switch_cpus: Raw Gem5 Running in Cycle:        33100000, Inst:        48322921
2104546226000: system.switch_cpus: Raw Gem5 Running in Cycle:        33200000, Inst:        48486987
2104596270500: system.switch_cpus: Raw Gem5 Running in Cycle:        33300000, Inst:        48641244
2104646297500: system.switch_cpus: Raw Gem5 Running in Cycle:        33400000, Inst:        48809610
2104696370500: system.switch_cpus: Raw Gem5 Running in Cycle:        33500000, Inst:        48963858
2104746394000: system.switch_cpus: Raw Gem5 Running in Cycle:        33600000, Inst:        49130523
2104796486000: system.switch_cpus: Raw Gem5 Running in Cycle:        33700000, Inst:        49279546
2104846515000: system.switch_cpus: Raw Gem5 Running in Cycle:        33800000, Inst:        49451483
2104896595500: system.switch_cpus: Raw Gem5 Running in Cycle:        33900000, Inst:        49601157
2104946639500: system.switch_cpus: Raw Gem5 Running in Cycle:        34000000, Inst:        49768358
2104996712500: system.switch_cpus: Raw Gem5 Running in Cycle:        34100000, Inst:        49916971
2105046744000: system.switch_cpus: Raw Gem5 Running in Cycle:        34200000, Inst:        50078367
2105096783000: system.switch_cpus: Raw Gem5 Running in Cycle:        34300000, Inst:        50248656
2105146840000: system.switch_cpus: Raw Gem5 Running in Cycle:        34400000, Inst:        50390023
2105196900500: system.switch_cpus: Raw Gem5 Running in Cycle:        34500000, Inst:        50553147
2105246960500: system.switch_cpus: Raw Gem5 Running in Cycle:        34600000, Inst:        50705723
2105297005000: system.switch_cpus: Raw Gem5 Running in Cycle:        34700000, Inst:        50873538
2105347108500: system.switch_cpus: Raw Gem5 Running in Cycle:        34800000, Inst:        50997504
2105397193500: system.switch_cpus: Raw Gem5 Running in Cycle:        34900000, Inst:        51162627
2105447268500: system.switch_cpus: Raw Gem5 Running in Cycle:        35000000, Inst:        51312970
2105497371500: system.switch_cpus: Raw Gem5 Running in Cycle:        35100000, Inst:        51458039
2105547429500: system.switch_cpus: Raw Gem5 Running in Cycle:        35200000, Inst:        51619955
2105597495000: system.switch_cpus: Raw Gem5 Running in Cycle:        35300000, Inst:        51768883
2105647588500: system.switch_cpus: Raw Gem5 Running in Cycle:        35400000, Inst:        51922333
2105697661000: system.switch_cpus: Raw Gem5 Running in Cycle:        35500000, Inst:        52067263
2105747768500: system.switch_cpus: Raw Gem5 Running in Cycle:        35600000, Inst:        52216184
2105797845000: system.switch_cpus: Raw Gem5 Running in Cycle:        35700000, Inst:        52371523
2105847920500: system.switch_cpus: Raw Gem5 Running in Cycle:        35800000, Inst:        52524669
2105898002500: system.switch_cpus: Raw Gem5 Running in Cycle:        35900000, Inst:        52666381
2105948062500: system.switch_cpus: Raw Gem5 Running in Cycle:        36000000, Inst:        52821660
2105998128500: system.switch_cpus: Raw Gem5 Running in Cycle:        36100000, Inst:        52963187
2106048176000: system.switch_cpus: Raw Gem5 Running in Cycle:        36200000, Inst:        53131301
2106098282000: system.switch_cpus: Raw Gem5 Running in Cycle:        36300000, Inst:        53274033
2106148372000: system.switch_cpus: Raw Gem5 Running in Cycle:        36400000, Inst:        53413042
2106199026000: system.switch_cpus: Raw Gem5 Running in Cycle:        36500000, Inst:        53562384
2106249098000: system.switch_cpus: Raw Gem5 Running in Cycle:        36600000, Inst:        53703319
2106299145000: system.switch_cpus: Raw Gem5 Running in Cycle:        36700000, Inst:        53870746
2106349225500: system.switch_cpus: Raw Gem5 Running in Cycle:        36800000, Inst:        54021475
2106399259000: system.switch_cpus: Raw Gem5 Running in Cycle:        36900000, Inst:        54175256
2106449293000: system.switch_cpus: Raw Gem5 Running in Cycle:        37000000, Inst:        54343708
2106499374500: system.switch_cpus: Raw Gem5 Running in Cycle:        37100000, Inst:        54481943
2106549416500: system.switch_cpus: Raw Gem5 Running in Cycle:        37200000, Inst:        54648849
2106599473000: system.switch_cpus: Raw Gem5 Running in Cycle:        37300000, Inst:        54803130
2106649508000: system.switch_cpus: Raw Gem5 Running in Cycle:        37400000, Inst:        54969421
2106699591000: system.switch_cpus: Raw Gem5 Running in Cycle:        37500000, Inst:        55105230
2106749640000: system.switch_cpus: Raw Gem5 Running in Cycle:        37600000, Inst:        55265976
2106799685500: system.switch_cpus: Raw Gem5 Running in Cycle:        37700000, Inst:        55431206
2106849782000: system.switch_cpus: Raw Gem5 Running in Cycle:        37800000, Inst:        55561517
2106899798500: system.switch_cpus: Raw Gem5 Running in Cycle:        37900000, Inst:        55738332
2106949895000: system.switch_cpus: Raw Gem5 Running in Cycle:        38000000, Inst:        55869373
2106999926000: system.switch_cpus: Raw Gem5 Running in Cycle:        38100000, Inst:        56041661
2107050027500: system.switch_cpus: Raw Gem5 Running in Cycle:        38200000, Inst:        56168184
2107100047500: system.switch_cpus: Raw Gem5 Running in Cycle:        38300000, Inst:        56329411
2107150120000: system.switch_cpus: Raw Gem5 Running in Cycle:        38400000, Inst:        56463007
2107200189000: system.switch_cpus: Raw Gem5 Running in Cycle:        38500000, Inst:        56621121
2107250228000: system.switch_cpus: Raw Gem5 Running in Cycle:        38600000, Inst:        56771931
2107300333000: system.switch_cpus: Raw Gem5 Running in Cycle:        38700000, Inst:        56888934
2107350357000: system.switch_cpus: Raw Gem5 Running in Cycle:        38800000, Inst:        57056754
2107400447000: system.switch_cpus: Raw Gem5 Running in Cycle:        38900000, Inst:        57203138
2107450487500: system.switch_cpus: Raw Gem5 Running in Cycle:        39000000, Inst:        57367908
2107500564500: system.switch_cpus: Raw Gem5 Running in Cycle:        39100000, Inst:        57515678
2107550599500: system.switch_cpus: Raw Gem5 Running in Cycle:        39200000, Inst:        57684334
2107600678000: system.switch_cpus: Raw Gem5 Running in Cycle:        39300000, Inst:        57838733
2107650708500: system.switch_cpus: Raw Gem5 Running in Cycle:        39400000, Inst:        58009522
2107701425000: system.switch_cpus: Raw Gem5 Running in Cycle:        39500000, Inst:        58148317
2107751470500: system.switch_cpus: Raw Gem5 Running in Cycle:        39600000, Inst:        58312898
2107801574000: system.switch_cpus: Raw Gem5 Running in Cycle:        39700000, Inst:        58446108
2107851629500: system.switch_cpus: Raw Gem5 Running in Cycle:        39800000, Inst:        58600640
2107901763000: system.switch_cpus: Raw Gem5 Running in Cycle:        39900000, Inst:        58742194
2107951822500: system.switch_cpus: Raw Gem5 Running in Cycle:        40000000, Inst:        58900306
2108001897500: system.switch_cpus: Raw Gem5 Running in Cycle:        40100000, Inst:        59055917
2108051998500: system.switch_cpus: Raw Gem5 Running in Cycle:        40200000, Inst:        59199331
2108102039500: system.switch_cpus: Raw Gem5 Running in Cycle:        40300000, Inst:        59371429
2108152111500: system.switch_cpus: Raw Gem5 Running in Cycle:        40400000, Inst:        59539454
2108202160500: system.switch_cpus: Raw Gem5 Running in Cycle:        40500000, Inst:        59687390
2108252198500: system.switch_cpus: Raw Gem5 Running in Cycle:        40600000, Inst:        59857783
2108302264500: system.switch_cpus: Raw Gem5 Running in Cycle:        40700000, Inst:        60030169
2108352341500: system.switch_cpus: Raw Gem5 Running in Cycle:        40800000, Inst:        60183241
2108402380000: system.switch_cpus: Raw Gem5 Running in Cycle:        40900000, Inst:        60366695
2108452458000: system.switch_cpus: Raw Gem5 Running in Cycle:        41000000, Inst:        60525182
2108502515500: system.switch_cpus: Raw Gem5 Running in Cycle:        41100000, Inst:        60671968
2108552553000: system.switch_cpus: Raw Gem5 Running in Cycle:        41200000, Inst:        60839716
2108602616500: system.switch_cpus: Raw Gem5 Running in Cycle:        41300000, Inst:        60985111
2108652643000: system.switch_cpus: Raw Gem5 Running in Cycle:        41400000, Inst:        61152429
2108702713500: system.switch_cpus: Raw Gem5 Running in Cycle:        41500000, Inst:        61294472
2108752756500: system.switch_cpus: Raw Gem5 Running in Cycle:        41600000, Inst:        61466057
2108802832500: system.switch_cpus: Raw Gem5 Running in Cycle:        41700000, Inst:        61612312
2108852855500: system.switch_cpus: Raw Gem5 Running in Cycle:        41800000, Inst:        61785133
2108902958000: system.switch_cpus: Raw Gem5 Running in Cycle:        41900000, Inst:        61916051
2108953001500: system.switch_cpus: Raw Gem5 Running in Cycle:        42000000, Inst:        62080041
2109003088000: system.switch_cpus: Raw Gem5 Running in Cycle:        42100000, Inst:        62225642
2109053126500: system.switch_cpus: Raw Gem5 Running in Cycle:        42200000, Inst:        62393539
2109103161500: system.switch_cpus: Raw Gem5 Running in Cycle:        42300000, Inst:        62556601
2109153244500: system.switch_cpus: Raw Gem5 Running in Cycle:        42400000, Inst:        62689065
2109203272000: system.switch_cpus: Raw Gem5 Running in Cycle:        42500000, Inst:        62857811
2109253344000: system.switch_cpus: Raw Gem5 Running in Cycle:        42600000, Inst:        63009231
2109303382000: system.switch_cpus: Raw Gem5 Running in Cycle:        42700000, Inst:        63168979
2109353447500: system.switch_cpus: Raw Gem5 Running in Cycle:        42800000, Inst:        63311793
2109403506500: system.switch_cpus: Raw Gem5 Running in Cycle:        42900000, Inst:        63477269
2109453580500: system.switch_cpus: Raw Gem5 Running in Cycle:        43000000, Inst:        63621829
2109503613500: system.switch_cpus: Raw Gem5 Running in Cycle:        43100000, Inst:        63798810
2109553685500: system.switch_cpus: Raw Gem5 Running in Cycle:        43200000, Inst:        63946906
2109603725500: system.switch_cpus: Raw Gem5 Running in Cycle:        43300000, Inst:        64115501
2109653791000: system.switch_cpus: Raw Gem5 Running in Cycle:        43400000, Inst:        64265109
2109703833000: system.switch_cpus: Raw Gem5 Running in Cycle:        43500000, Inst:        64424464
2109753943500: system.switch_cpus: Raw Gem5 Running in Cycle:        43600000, Inst:        64551080
2109803974500: system.switch_cpus: Raw Gem5 Running in Cycle:        43700000, Inst:        64714334
2109854051000: system.switch_cpus: Raw Gem5 Running in Cycle:        43800000, Inst:        64864087
2109904093000: system.switch_cpus: Raw Gem5 Running in Cycle:        43900000, Inst:        65025642
2109954158000: system.switch_cpus: Raw Gem5 Running in Cycle:        44000000, Inst:        65157226
2110004257000: system.switch_cpus: Raw Gem5 Running in Cycle:        44100000, Inst:        65276197
2110054342500: system.switch_cpus: Raw Gem5 Running in Cycle:        44200000, Inst:        65415001
2110104368000: system.switch_cpus: Raw Gem5 Running in Cycle:        44300000, Inst:        65573515
2110154428000: system.switch_cpus: Raw Gem5 Running in Cycle:        44400000, Inst:        65699014
2110204524000: system.switch_cpus: Raw Gem5 Running in Cycle:        44500000, Inst:        65813762
2110254565000: system.switch_cpus: Raw Gem5 Running in Cycle:        44600000, Inst:        65974415
2110304637000: system.switch_cpus: Raw Gem5 Running in Cycle:        44700000, Inst:        66112362
2110354892500: system.switch_cpus: Raw Gem5 Running in Cycle:        44800000, Inst:        66217191
2110405048000: system.switch_cpus: Raw Gem5 Running in Cycle:        44900000, Inst:        66332180
2110455224000: system.switch_cpus: Raw Gem5 Running in Cycle:        45000000, Inst:        66452743
2110505387000: system.switch_cpus: Raw Gem5 Running in Cycle:        45100000, Inst:        66572396
2110555492000: system.switch_cpus: Raw Gem5 Running in Cycle:        45200000, Inst:        66685973
2110605849500: system.switch_cpus: Raw Gem5 Running in Cycle:        45300000, Inst:        66812606
2110655918500: system.switch_cpus: Raw Gem5 Running in Cycle:        45400000, Inst:        66941850
2110706199000: system.switch_cpus: Raw Gem5 Running in Cycle:        45500000, Inst:        67058556
2110756289000: system.switch_cpus: Raw Gem5 Running in Cycle:        45600000, Inst:        67182898
2110806350000: system.switch_cpus: Raw Gem5 Running in Cycle:        45700000, Inst:        67305789
2110856421500: system.switch_cpus: Raw Gem5 Running in Cycle:        45800000, Inst:        67431896
2110906522500: system.switch_cpus: Raw Gem5 Running in Cycle:        45900000, Inst:        67553586
2110956586000: system.switch_cpus: Raw Gem5 Running in Cycle:        46000000, Inst:        67673706
2111006684500: system.switch_cpus: Raw Gem5 Running in Cycle:        46100000, Inst:        67804146
2111056725000: system.switch_cpus: Raw Gem5 Running in Cycle:        46200000, Inst:        67951831
2111106837500: system.switch_cpus: Raw Gem5 Running in Cycle:        46300000, Inst:        68094356
2111156871000: system.switch_cpus: Raw Gem5 Running in Cycle:        46400000, Inst:        68247514
2111206955500: system.switch_cpus: Raw Gem5 Running in Cycle:        46500000, Inst:        68394566
2111256979500: system.switch_cpus: Raw Gem5 Running in Cycle:        46600000, Inst:        68569604
2111307063500: system.switch_cpus: Raw Gem5 Running in Cycle:        46700000, Inst:        68704506
2111357165000: system.switch_cpus: Raw Gem5 Running in Cycle:        46800000, Inst:        68841146
2111407242000: system.switch_cpus: Raw Gem5 Running in Cycle:        46900000, Inst:        68981654
2111457277500: system.switch_cpus: Raw Gem5 Running in Cycle:        47000000, Inst:        69139428
2111507352500: system.switch_cpus: Raw Gem5 Running in Cycle:        47100000, Inst:        69296057
2111557459000: system.switch_cpus: Raw Gem5 Running in Cycle:        47200000, Inst:        69429542
2111607516000: system.switch_cpus: Raw Gem5 Running in Cycle:        47300000, Inst:        69581532
2111657605000: system.switch_cpus: Raw Gem5 Running in Cycle:        47400000, Inst:        69739740
2111707694500: system.switch_cpus: Raw Gem5 Running in Cycle:        47500000, Inst:        69905336
2111757815000: system.switch_cpus: Raw Gem5 Running in Cycle:        47600000, Inst:        70034458
2111807845000: system.switch_cpus: Raw Gem5 Running in Cycle:        47700000, Inst:        70205633
2111857935500: system.switch_cpus: Raw Gem5 Running in Cycle:        47800000, Inst:        70352740
2111907976500: system.switch_cpus: Raw Gem5 Running in Cycle:        47900000, Inst:        70513198
2111958131000: system.switch_cpus: Raw Gem5 Running in Cycle:        48000000, Inst:        70614982
2112008184000: system.switch_cpus: Raw Gem5 Running in Cycle:        48100000, Inst:        70779022
2112058269500: system.switch_cpus: Raw Gem5 Running in Cycle:        48200000, Inst:        70918295
2112108319500: system.switch_cpus: Raw Gem5 Running in Cycle:        48300000, Inst:        71068743
2112158455500: system.switch_cpus: Raw Gem5 Running in Cycle:        48400000, Inst:        71198094
2112208494500: system.switch_cpus: Raw Gem5 Running in Cycle:        48500000, Inst:        71356382
2112258576000: system.switch_cpus: Raw Gem5 Running in Cycle:        48600000, Inst:        71504111
2112308653000: system.switch_cpus: Raw Gem5 Running in Cycle:        48700000, Inst:        71661480
2112358753000: system.switch_cpus: Raw Gem5 Running in Cycle:        48800000, Inst:        71791170
2112408807000: system.switch_cpus: Raw Gem5 Running in Cycle:        48900000, Inst:        71958268
2112458868500: system.switch_cpus: Raw Gem5 Running in Cycle:        49000000, Inst:        72117419
2112508931500: system.switch_cpus: Raw Gem5 Running in Cycle:        49100000, Inst:        72254366
2112558993500: system.switch_cpus: Raw Gem5 Running in Cycle:        49200000, Inst:        72416132
2112609102500: system.switch_cpus: Raw Gem5 Running in Cycle:        49300000, Inst:        72538691
2112659210500: system.switch_cpus: Raw Gem5 Running in Cycle:        49400000, Inst:        72675826
2112709301000: system.switch_cpus: Raw Gem5 Running in Cycle:        49500000, Inst:        72831186
2112759397500: system.switch_cpus: Raw Gem5 Running in Cycle:        49600000, Inst:        72972138
2112809480500: system.switch_cpus: Raw Gem5 Running in Cycle:        49700000, Inst:        73125415
2112859513500: system.switch_cpus: Raw Gem5 Running in Cycle:        49800000, Inst:        73288184
2112909659000: system.switch_cpus: Raw Gem5 Running in Cycle:        49900000, Inst:        73424133
2112959673000: system.switch_cpus: Raw Gem5 Running in Cycle:        50000000, Inst:        73600603
2113009750500: system.switch_cpus: Raw Gem5 Running in Cycle:        50100000, Inst:        73738027
2113059834500: system.switch_cpus: Raw Gem5 Running in Cycle:        50200000, Inst:        73897161
2113109931500: system.switch_cpus: Raw Gem5 Running in Cycle:        50300000, Inst:        74039929
2113160001000: system.switch_cpus: Raw Gem5 Running in Cycle:        50400000, Inst:        74187068
2113210078500: system.switch_cpus: Raw Gem5 Running in Cycle:        50500000, Inst:        74342115
2113260151500: system.switch_cpus: Raw Gem5 Running in Cycle:        50600000, Inst:        74500194
2113310282000: system.switch_cpus: Raw Gem5 Running in Cycle:        50700000, Inst:        74622303
2113360344000: system.switch_cpus: Raw Gem5 Running in Cycle:        50800000, Inst:        74776565
2113410456000: system.switch_cpus: Raw Gem5 Running in Cycle:        50900000, Inst:        74906424
2113460504000: system.switch_cpus: Raw Gem5 Running in Cycle:        51000000, Inst:        75074278
2113510559000: system.switch_cpus: Raw Gem5 Running in Cycle:        51100000, Inst:        75236486
2113560686000: system.switch_cpus: Raw Gem5 Running in Cycle:        51200000, Inst:        75378675
2113610777500: system.switch_cpus: Raw Gem5 Running in Cycle:        51300000, Inst:        75543672
2113660847500: system.switch_cpus: Raw Gem5 Running in Cycle:        51400000, Inst:        75706405
2113710946000: system.switch_cpus: Raw Gem5 Running in Cycle:        51500000, Inst:        75838156
2113761003500: system.switch_cpus: Raw Gem5 Running in Cycle:        51600000, Inst:        75994049
2113811065000: system.switch_cpus: Raw Gem5 Running in Cycle:        51700000, Inst:        76158186
2113861145500: system.switch_cpus: Raw Gem5 Running in Cycle:        51800000, Inst:        76309642
2113911216500: system.switch_cpus: Raw Gem5 Running in Cycle:        51900000, Inst:        76454466
2113961238000: system.switch_cpus: Raw Gem5 Running in Cycle:        52000000, Inst:        76626397
2114011330500: system.switch_cpus: Raw Gem5 Running in Cycle:        52100000, Inst:        76765545
2114061409500: system.switch_cpus: Raw Gem5 Running in Cycle:        52200000, Inst:        76908083
2114111523000: system.switch_cpus: Raw Gem5 Running in Cycle:        52300000, Inst:        77033483
2114161582500: system.switch_cpus: Raw Gem5 Running in Cycle:        52400000, Inst:        77187791
2114211739500: system.switch_cpus: Raw Gem5 Running in Cycle:        52500000, Inst:        77314995
2114261766000: system.switch_cpus: Raw Gem5 Running in Cycle:        52600000, Inst:        77484504
2114311862500: system.switch_cpus: Raw Gem5 Running in Cycle:        52700000, Inst:        77627562
2114361924000: system.switch_cpus: Raw Gem5 Running in Cycle:        52800000, Inst:        77788242
2114412003000: system.switch_cpus: Raw Gem5 Running in Cycle:        52900000, Inst:        77933059
2114462070500: system.switch_cpus: Raw Gem5 Running in Cycle:        53000000, Inst:        78091247
2114512155000: system.switch_cpus: Raw Gem5 Running in Cycle:        53100000, Inst:        78251100
2114562279000: system.switch_cpus: Raw Gem5 Running in Cycle:        53200000, Inst:        78380218
2114612332000: system.switch_cpus: Raw Gem5 Running in Cycle:        53300000, Inst:        78549966
2114662403000: system.switch_cpus: Raw Gem5 Running in Cycle:        53400000, Inst:        78690388
2114712475500: system.switch_cpus: Raw Gem5 Running in Cycle:        53500000, Inst:        78844763
2114762521000: system.switch_cpus: Raw Gem5 Running in Cycle:        53600000, Inst:        79012409
2114812598000: system.switch_cpus: Raw Gem5 Running in Cycle:        53700000, Inst:        79140124
2114862673000: system.switch_cpus: Raw Gem5 Running in Cycle:        53800000, Inst:        79296904
2114912777500: system.switch_cpus: Raw Gem5 Running in Cycle:        53900000, Inst:        79426027
2114962825500: system.switch_cpus: Raw Gem5 Running in Cycle:        54000000, Inst:        79591098
2115012898500: system.switch_cpus: Raw Gem5 Running in Cycle:        54100000, Inst:        79731364
2115062934000: system.switch_cpus: Raw Gem5 Running in Cycle:        54200000, Inst:        79904814
2115113034500: system.switch_cpus: Raw Gem5 Running in Cycle:        54300000, Inst:        80039656
2115163114500: system.switch_cpus: Raw Gem5 Running in Cycle:        54400000, Inst:        80209205
2115213158500: system.switch_cpus: Raw Gem5 Running in Cycle:        54500000, Inst:        80374145
2115263271500: system.switch_cpus: Raw Gem5 Running in Cycle:        54600000, Inst:        80500775
2115313311500: system.switch_cpus: Raw Gem5 Running in Cycle:        54700000, Inst:        80674727
2115363381000: system.switch_cpus: Raw Gem5 Running in Cycle:        54800000, Inst:        80822053
2115413429000: system.switch_cpus: Raw Gem5 Running in Cycle:        54900000, Inst:        80983588
2115463521500: system.switch_cpus: Raw Gem5 Running in Cycle:        55000000, Inst:        81129770
2115513556500: system.switch_cpus: Raw Gem5 Running in Cycle:        55100000, Inst:        81294472
2115563635000: system.switch_cpus: Raw Gem5 Running in Cycle:        55200000, Inst:        81430944
2115613674500: system.switch_cpus: Raw Gem5 Running in Cycle:        55300000, Inst:        81592973
2115663757000: system.switch_cpus: Raw Gem5 Running in Cycle:        55400000, Inst:        81702407
2115713838000: system.switch_cpus: Raw Gem5 Running in Cycle:        55500000, Inst:        81843228
2115763860500: system.switch_cpus: Raw Gem5 Running in Cycle:        55600000, Inst:        82008186
2115813941000: system.switch_cpus: Raw Gem5 Running in Cycle:        55700000, Inst:        82151936
2115863984000: system.switch_cpus: Raw Gem5 Running in Cycle:        55800000, Inst:        82310138
2115914119000: system.switch_cpus: Raw Gem5 Running in Cycle:        55900000, Inst:        82432986
2115964154500: system.switch_cpus: Raw Gem5 Running in Cycle:        56000000, Inst:        82597870
2116014223500: system.switch_cpus: Raw Gem5 Running in Cycle:        56100000, Inst:        82741793
2116064278000: system.switch_cpus: Raw Gem5 Running in Cycle:        56200000, Inst:        82907440
2116114383000: system.switch_cpus: Raw Gem5 Running in Cycle:        56300000, Inst:        83037080
2116164416500: system.switch_cpus: Raw Gem5 Running in Cycle:        56400000, Inst:        83203166
2116214496000: system.switch_cpus: Raw Gem5 Running in Cycle:        56500000, Inst:        83357464
2116264529000: system.switch_cpus: Raw Gem5 Running in Cycle:        56600000, Inst:        83522595
2116314593000: system.switch_cpus: Raw Gem5 Running in Cycle:        56700000, Inst:        83660461
2116364664000: system.switch_cpus: Raw Gem5 Running in Cycle:        56800000, Inst:        83816396
2116414720500: system.switch_cpus: Raw Gem5 Running in Cycle:        56900000, Inst:        83969816
2116464766500: system.switch_cpus: Raw Gem5 Running in Cycle:        57000000, Inst:        84126728
2116514843500: system.switch_cpus: Raw Gem5 Running in Cycle:        57100000, Inst:        84259369
2116564976500: system.switch_cpus: Raw Gem5 Running in Cycle:        57200000, Inst:        84379349
2116615008000: system.switch_cpus: Raw Gem5 Running in Cycle:        57300000, Inst:        84546224
2116665103500: system.switch_cpus: Raw Gem5 Running in Cycle:        57400000, Inst:        84693854
2116715146000: system.switch_cpus: Raw Gem5 Running in Cycle:        57500000, Inst:        84850352
2116765248000: system.switch_cpus: Raw Gem5 Running in Cycle:        57600000, Inst:        84968602
2116815294500: system.switch_cpus: Raw Gem5 Running in Cycle:        57700000, Inst:        85125876
2116865336000: system.switch_cpus: Raw Gem5 Running in Cycle:        57800000, Inst:        85273419
2116915372000: system.switch_cpus: Raw Gem5 Running in Cycle:        57900000, Inst:        85433584
2116965437500: system.switch_cpus: Raw Gem5 Running in Cycle:        58000000, Inst:        85575618
2117015603500: system.switch_cpus: Raw Gem5 Running in Cycle:        58100000, Inst:        85680933
2117065667000: system.switch_cpus: Raw Gem5 Running in Cycle:        58200000, Inst:        85797325
2117115758000: system.switch_cpus: Raw Gem5 Running in Cycle:        58300000, Inst:        85910841
2117165840000: system.switch_cpus: Raw Gem5 Running in Cycle:        58400000, Inst:        86025823
2117215965500: system.switch_cpus: Raw Gem5 Running in Cycle:        58500000, Inst:        86139679
2117266001000: system.switch_cpus: Raw Gem5 Running in Cycle:        58600000, Inst:        86298675
2117316100000: system.switch_cpus: Raw Gem5 Running in Cycle:        58700000, Inst:        86442760
2117366149500: system.switch_cpus: Raw Gem5 Running in Cycle:        58800000, Inst:        86603478
2117416221000: system.switch_cpus: Raw Gem5 Running in Cycle:        58900000, Inst:        86728706
2117466308500: system.switch_cpus: Raw Gem5 Running in Cycle:        59000000, Inst:        86858480
2117516352500: system.switch_cpus: Raw Gem5 Running in Cycle:        59100000, Inst:        87018175
2117566440500: system.switch_cpus: Raw Gem5 Running in Cycle:        59200000, Inst:        87180582
2117616484000: system.switch_cpus: Raw Gem5 Running in Cycle:        59300000, Inst:        87326010
2117666618000: system.switch_cpus: Raw Gem5 Running in Cycle:        59400000, Inst:        87441159
2117716662000: system.switch_cpus: Raw Gem5 Running in Cycle:        59500000, Inst:        87597917
2117766742500: system.switch_cpus: Raw Gem5 Running in Cycle:        59600000, Inst:        87745731
2117816768500: system.switch_cpus: Raw Gem5 Running in Cycle:        59700000, Inst:        87903980
2117866850500: system.switch_cpus: Raw Gem5 Running in Cycle:        59800000, Inst:        88039945
2117916897000: system.switch_cpus: Raw Gem5 Running in Cycle:        59900000, Inst:        88201045
2117966953000: system.switch_cpus: Raw Gem5 Running in Cycle:        60000000, Inst:        88353502
2118016986500: system.switch_cpus: Raw Gem5 Running in Cycle:        60100000, Inst:        88519078
2118067076000: system.switch_cpus: Raw Gem5 Running in Cycle:        60200000, Inst:        88655211
2118117138500: system.switch_cpus: Raw Gem5 Running in Cycle:        60300000, Inst:        88817845
2118167197000: system.switch_cpus: Raw Gem5 Running in Cycle:        60400000, Inst:        88972018
2118217240500: system.switch_cpus: Raw Gem5 Running in Cycle:        60500000, Inst:        89136865
2118267303500: system.switch_cpus: Raw Gem5 Running in Cycle:        60600000, Inst:        89268421
2118317393500: system.switch_cpus: Raw Gem5 Running in Cycle:        60700000, Inst:        89394104
2118367424500: system.switch_cpus: Raw Gem5 Running in Cycle:        60800000, Inst:        89558488
2118417488500: system.switch_cpus: Raw Gem5 Running in Cycle:        60900000, Inst:        89717755
2118467576000: system.switch_cpus: Raw Gem5 Running in Cycle:        61000000, Inst:        89855254
2118517662000: system.switch_cpus: Raw Gem5 Running in Cycle:        61100000, Inst:        89977938
2118567686000: system.switch_cpus: Raw Gem5 Running in Cycle:        61200000, Inst:        90141863
2118617784000: system.switch_cpus: Raw Gem5 Running in Cycle:        61300000, Inst:        90283186
2118667814500: system.switch_cpus: Raw Gem5 Running in Cycle:        61400000, Inst:        90443113
2118717921000: system.switch_cpus: Raw Gem5 Running in Cycle:        61500000, Inst:        90566101
2118768060000: system.switch_cpus: Raw Gem5 Running in Cycle:        61600000, Inst:        90683908
2118818152500: system.switch_cpus: Raw Gem5 Running in Cycle:        61700000, Inst:        90804528
2118868185000: system.switch_cpus: Raw Gem5 Running in Cycle:        61800000, Inst:        90957809
2118918312000: system.switch_cpus: Raw Gem5 Running in Cycle:        61900000, Inst:        91094197
2118968348000: system.switch_cpus: Raw Gem5 Running in Cycle:        62000000, Inst:        91251656
2119018397500: system.switch_cpus: Raw Gem5 Running in Cycle:        62100000, Inst:        91400991
2119068514500: system.switch_cpus: Raw Gem5 Running in Cycle:        62200000, Inst:        91551670
2119118546000: system.switch_cpus: Raw Gem5 Running in Cycle:        62300000, Inst:        91712086
2119169469000: system.switch_cpus: Raw Gem5 Running in Cycle:        62400000, Inst:        91853257
2119219527000: system.switch_cpus: Raw Gem5 Running in Cycle:        62500000, Inst:        92021601
2119269561500: system.switch_cpus: Raw Gem5 Running in Cycle:        62600000, Inst:        92188999
2119319654500: system.switch_cpus: Raw Gem5 Running in Cycle:        62700000, Inst:        92338111
2119369700000: system.switch_cpus: Raw Gem5 Running in Cycle:        62800000, Inst:        92502398
2119419787500: system.switch_cpus: Raw Gem5 Running in Cycle:        62900000, Inst:        92657507
2119469841000: system.switch_cpus: Raw Gem5 Running in Cycle:        63000000, Inst:        92829217
2119519937500: system.switch_cpus: Raw Gem5 Running in Cycle:        63100000, Inst:        92954245
2119575421500: system.switch_cpus: Raw Gem5 Running in Cycle:        63200000, Inst:        93064807
2119626007500: system.switch_cpus: Raw Gem5 Running in Cycle:        63300000, Inst:        93182727
2119676696000: system.switch_cpus: Raw Gem5 Running in Cycle:        63400000, Inst:        93304593
2119727170000: system.switch_cpus: Raw Gem5 Running in Cycle:        63500000, Inst:        93420618
2119777211000: system.switch_cpus: Raw Gem5 Running in Cycle:        63600000, Inst:        93553862
2119827250500: system.switch_cpus: Raw Gem5 Running in Cycle:        63700000, Inst:        93687207
2119877750000: system.switch_cpus: Raw Gem5 Running in Cycle:        63800000, Inst:        93800310
2119927844500: system.switch_cpus: Raw Gem5 Running in Cycle:        63900000, Inst:        93932415
2119978553000: system.switch_cpus: Raw Gem5 Running in Cycle:        64000000, Inst:        94060780
2120028846000: system.switch_cpus: Raw Gem5 Running in Cycle:        64100000, Inst:        94181148
2120078918500: system.switch_cpus: Raw Gem5 Running in Cycle:        64200000, Inst:        94308465
2120129009500: system.switch_cpus: Raw Gem5 Running in Cycle:        64300000, Inst:        94420727
2120179114500: system.switch_cpus: Raw Gem5 Running in Cycle:        64400000, Inst:        94534026
2120229189500: system.switch_cpus: Raw Gem5 Running in Cycle:        64500000, Inst:        94645931
2120279257500: system.switch_cpus: Raw Gem5 Running in Cycle:        64600000, Inst:        94766385
2120329314500: system.switch_cpus: Raw Gem5 Running in Cycle:        64700000, Inst:        94893199
2120379356500: system.switch_cpus: Raw Gem5 Running in Cycle:        64800000, Inst:        95020403
2120429444000: system.switch_cpus: Raw Gem5 Running in Cycle:        64900000, Inst:        95135368
2120479661000: system.switch_cpus: Raw Gem5 Running in Cycle:        65000000, Inst:        95251489
2120529740000: system.switch_cpus: Raw Gem5 Running in Cycle:        65100000, Inst:        95377778
2120579862000: system.switch_cpus: Raw Gem5 Running in Cycle:        65200000, Inst:        95508132
2120629916500: system.switch_cpus: Raw Gem5 Running in Cycle:        65300000, Inst:        95645599
2120679986500: system.switch_cpus: Raw Gem5 Running in Cycle:        65400000, Inst:        95788026
2120730039000: system.switch_cpus: Raw Gem5 Running in Cycle:        65500000, Inst:        95946399
2120780110500: system.switch_cpus: Raw Gem5 Running in Cycle:        65600000, Inst:        96068418
2120830168500: system.switch_cpus: Raw Gem5 Running in Cycle:        65700000, Inst:        96205214
2120880247000: system.switch_cpus: Raw Gem5 Running in Cycle:        65800000, Inst:        96340556
2120930327500: system.switch_cpus: Raw Gem5 Running in Cycle:        65900000, Inst:        96466531
2120980420000: system.switch_cpus: Raw Gem5 Running in Cycle:        66000000, Inst:        96593167
2121030492000: system.switch_cpus: Raw Gem5 Running in Cycle:        66100000, Inst:        96732570
2121080590000: system.switch_cpus: Raw Gem5 Running in Cycle:        66200000, Inst:        96844029
2121130736500: system.switch_cpus: Raw Gem5 Running in Cycle:        66300000, Inst:        96972742
2121180867500: system.switch_cpus: Raw Gem5 Running in Cycle:        66400000, Inst:        97089637
2121230961000: system.switch_cpus: Raw Gem5 Running in Cycle:        66500000, Inst:        97205971
2121281034500: system.switch_cpus: Raw Gem5 Running in Cycle:        66600000, Inst:        97335805
2121331141500: system.switch_cpus: Raw Gem5 Running in Cycle:        66700000, Inst:        97449960
2121381223500: system.switch_cpus: Raw Gem5 Running in Cycle:        66800000, Inst:        97562934
2121431299500: system.switch_cpus: Raw Gem5 Running in Cycle:        66900000, Inst:        97679244
2121481451500: system.switch_cpus: Raw Gem5 Running in Cycle:        67000000, Inst:        97799799
2121531510000: system.switch_cpus: Raw Gem5 Running in Cycle:        67100000, Inst:        97918122
2121581582500: system.switch_cpus: Raw Gem5 Running in Cycle:        67200000, Inst:        98036276
2121633097000: system.switch_cpus: Raw Gem5 Running in Cycle:        67300000, Inst:        98158087
2121683130500: system.switch_cpus: Raw Gem5 Running in Cycle:        67400000, Inst:        98322323
2121733189500: system.switch_cpus: Raw Gem5 Running in Cycle:        67500000, Inst:        98489343
2121783227000: system.switch_cpus: Raw Gem5 Running in Cycle:        67600000, Inst:        98676288
2121833288000: system.switch_cpus: Raw Gem5 Running in Cycle:        67700000, Inst:        98847028
2121883328000: system.switch_cpus: Raw Gem5 Running in Cycle:        67800000, Inst:        99013322
2121933406000: system.switch_cpus: Raw Gem5 Running in Cycle:        67900000, Inst:        99146936
2121983465500: system.switch_cpus: Raw Gem5 Running in Cycle:        68000000, Inst:        99321892
2122033537500: system.switch_cpus: Raw Gem5 Running in Cycle:        68100000, Inst:        99481230
2122083615500: system.switch_cpus: Raw Gem5 Running in Cycle:        68200000, Inst:        99623783
2122133641000: system.switch_cpus: Raw Gem5 Running in Cycle:        68300000, Inst:        99799325
2122183690500: system.switch_cpus: Raw Gem5 Running in Cycle:        68400000, Inst:        99967968
Exiting @ tick 2122194358500 because a thread reached the max instruction count
end time:(year-mon-day hour-minute-second)19-03-30 21-05-51
