
---------- Begin Simulation Statistics ----------
final_tick                               2122194358500                       # Number of ticks from beginning of simulation (restored from checkpoints and never reset)
host_inst_rate                                 199638                       # Simulator instruction rate (inst/s)
host_mem_usage                                8532696                       # Number of bytes of host memory used
host_op_rate                                   199638                       # Simulator op (including micro ops) rate (op/s)
host_seconds                                   500.91                       # Real time elapsed on the host
host_tick_rate                               68566521                       # Simulator tick rate (ticks/s)
sim_freq                                 1000000000000                       # Frequency of simulated ticks
sim_insts                                   100000022                       # Number of instructions simulated
sim_ops                                     100000022                       # Number of ops (including micro ops) simulated
sim_seconds                                  0.034345                       # Number of seconds simulated
sim_ticks                                 34345408500                       # Number of ticks simulated
system.clk_domain.clock                          1000                       # Clock period in ticks
system.cpu.committedInsts                          20                       # Number of instructions committed
system.cpu.committedOps                            20                       # Number of ops (including micro ops) committed
system.cpu.dcache.ReadReq_accesses::.cpu.data            5                       # number of ReadReq accesses(hits+misses)
system.cpu.dcache.ReadReq_accesses::.switch_cpus.data     28086313                       # number of ReadReq accesses(hits+misses)
system.cpu.dcache.ReadReq_accesses::total     28086318                       # number of ReadReq accesses(hits+misses)
system.cpu.dcache.ReadReq_avg_miss_latency::.switch_cpus.data 16582.185292                       # average ReadReq miss latency
system.cpu.dcache.ReadReq_avg_miss_latency::total 16581.987278                       # average ReadReq miss latency
system.cpu.dcache.ReadReq_avg_mshr_miss_latency::.switch_cpus.data 18936.708262                       # average ReadReq mshr miss latency
system.cpu.dcache.ReadReq_avg_mshr_miss_latency::total 18936.708262                       # average ReadReq mshr miss latency
system.cpu.dcache.ReadReq_hits::.cpu.data            2                       # number of ReadReq hits
system.cpu.dcache.ReadReq_hits::.switch_cpus.data     27835088                       # number of ReadReq hits
system.cpu.dcache.ReadReq_hits::total        27835090                       # number of ReadReq hits
system.cpu.dcache.ReadReq_miss_latency::.switch_cpus.data   4165859500                       # number of ReadReq miss cycles
system.cpu.dcache.ReadReq_miss_latency::total   4165859500                       # number of ReadReq miss cycles
system.cpu.dcache.ReadReq_miss_rate::.cpu.data     0.600000                       # miss rate for ReadReq accesses
system.cpu.dcache.ReadReq_miss_rate::.switch_cpus.data     0.008945                       # miss rate for ReadReq accesses
system.cpu.dcache.ReadReq_miss_rate::total     0.008945                       # miss rate for ReadReq accesses
system.cpu.dcache.ReadReq_misses::.cpu.data            3                       # number of ReadReq misses
system.cpu.dcache.ReadReq_misses::.switch_cpus.data       251225                       # number of ReadReq misses
system.cpu.dcache.ReadReq_misses::total        251228                       # number of ReadReq misses
system.cpu.dcache.ReadReq_mshr_hits::.switch_cpus.data       134946                       # number of ReadReq MSHR hits
system.cpu.dcache.ReadReq_mshr_hits::total       134946                       # number of ReadReq MSHR hits
system.cpu.dcache.ReadReq_mshr_miss_latency::.switch_cpus.data   2201941500                       # number of ReadReq MSHR miss cycles
system.cpu.dcache.ReadReq_mshr_miss_latency::total   2201941500                       # number of ReadReq MSHR miss cycles
system.cpu.dcache.ReadReq_mshr_miss_rate::.switch_cpus.data     0.004140                       # mshr miss rate for ReadReq accesses
system.cpu.dcache.ReadReq_mshr_miss_rate::total     0.004140                       # mshr miss rate for ReadReq accesses
system.cpu.dcache.ReadReq_mshr_misses::.switch_cpus.data       116279                       # number of ReadReq MSHR misses
system.cpu.dcache.ReadReq_mshr_misses::total       116279                       # number of ReadReq MSHR misses
system.cpu.dcache.WriteReq_accesses::.cpu.data            4                       # number of WriteReq accesses(hits+misses)
system.cpu.dcache.WriteReq_accesses::.switch_cpus.data     13513494                       # number of WriteReq accesses(hits+misses)
system.cpu.dcache.WriteReq_accesses::total     13513498                       # number of WriteReq accesses(hits+misses)
system.cpu.dcache.WriteReq_avg_miss_latency::.switch_cpus.data 12033.766949                       # average WriteReq miss latency
system.cpu.dcache.WriteReq_avg_miss_latency::total 12033.738842                       # average WriteReq miss latency
system.cpu.dcache.WriteReq_avg_mshr_miss_latency::.switch_cpus.data 13526.618869                       # average WriteReq mshr miss latency
system.cpu.dcache.WriteReq_avg_mshr_miss_latency::total 13526.618869                       # average WriteReq mshr miss latency
system.cpu.dcache.WriteReq_hits::.cpu.data            2                       # number of WriteReq hits
system.cpu.dcache.WriteReq_hits::.switch_cpus.data     12657193                       # number of WriteReq hits
system.cpu.dcache.WriteReq_hits::total       12657195                       # number of WriteReq hits
system.cpu.dcache.WriteReq_miss_latency::.switch_cpus.data  10304526672                       # number of WriteReq miss cycles
system.cpu.dcache.WriteReq_miss_latency::total  10304526672                       # number of WriteReq miss cycles
system.cpu.dcache.WriteReq_miss_rate::.cpu.data     0.500000                       # miss rate for WriteReq accesses
system.cpu.dcache.WriteReq_miss_rate::.switch_cpus.data     0.063366                       # miss rate for WriteReq accesses
system.cpu.dcache.WriteReq_miss_rate::total     0.063366                       # miss rate for WriteReq accesses
system.cpu.dcache.WriteReq_misses::.cpu.data            2                       # number of WriteReq misses
system.cpu.dcache.WriteReq_misses::.switch_cpus.data       856301                       # number of WriteReq misses
system.cpu.dcache.WriteReq_misses::total       856303                       # number of WriteReq misses
system.cpu.dcache.WriteReq_mshr_hits::.switch_cpus.data       644657                       # number of WriteReq MSHR hits
system.cpu.dcache.WriteReq_mshr_hits::total       644657                       # number of WriteReq MSHR hits
system.cpu.dcache.WriteReq_mshr_miss_latency::.switch_cpus.data   2862827724                       # number of WriteReq MSHR miss cycles
system.cpu.dcache.WriteReq_mshr_miss_latency::total   2862827724                       # number of WriteReq MSHR miss cycles
system.cpu.dcache.WriteReq_mshr_miss_rate::.switch_cpus.data     0.015662                       # mshr miss rate for WriteReq accesses
system.cpu.dcache.WriteReq_mshr_miss_rate::total     0.015662                       # mshr miss rate for WriteReq accesses
system.cpu.dcache.WriteReq_mshr_misses::.switch_cpus.data       211644                       # number of WriteReq MSHR misses
system.cpu.dcache.WriteReq_mshr_misses::total       211644                       # number of WriteReq MSHR misses
system.cpu.dcache.avg_blocked_cycles::no_mshrs    10.034306                       # average number of cycles each access was blocked
system.cpu.dcache.avg_blocked_cycles::no_targets   196.571429                       # average number of cycles each access was blocked
system.cpu.dcache.blocked::no_mshrs             57979                       # number of cycles access was blocked
system.cpu.dcache.blocked::no_targets              14                       # number of cycles access was blocked
system.cpu.dcache.blocked_cycles::no_mshrs       581779                       # number of cycles access was blocked
system.cpu.dcache.blocked_cycles::no_targets         2752                       # number of cycles access was blocked
system.cpu.dcache.demand_accesses::.cpu.data            9                       # number of demand (read+write) accesses
system.cpu.dcache.demand_accesses::.switch_cpus.data     41599807                       # number of demand (read+write) accesses
system.cpu.dcache.demand_accesses::total     41599816                       # number of demand (read+write) accesses
system.cpu.dcache.demand_avg_miss_latency::.switch_cpus.data 13065.504712                       # average overall miss latency
system.cpu.dcache.demand_avg_miss_latency::total 13065.445727                       # average overall miss latency
system.cpu.dcache.demand_avg_mshr_miss_latency::.switch_cpus.data 15444.995392                       # average overall mshr miss latency
system.cpu.dcache.demand_avg_mshr_miss_latency::total 15444.995392                       # average overall mshr miss latency
system.cpu.dcache.demand_hits::.cpu.data            4                       # number of demand (read+write) hits
system.cpu.dcache.demand_hits::.switch_cpus.data     40492281                       # number of demand (read+write) hits
system.cpu.dcache.demand_hits::total         40492285                       # number of demand (read+write) hits
system.cpu.dcache.demand_miss_latency::.switch_cpus.data  14470386172                       # number of demand (read+write) miss cycles
system.cpu.dcache.demand_miss_latency::total  14470386172                       # number of demand (read+write) miss cycles
system.cpu.dcache.demand_miss_rate::.cpu.data     0.555556                       # miss rate for demand accesses
system.cpu.dcache.demand_miss_rate::.switch_cpus.data     0.026623                       # miss rate for demand accesses
system.cpu.dcache.demand_miss_rate::total     0.026623                       # miss rate for demand accesses
system.cpu.dcache.demand_misses::.cpu.data            5                       # number of demand (read+write) misses
system.cpu.dcache.demand_misses::.switch_cpus.data      1107526                       # number of demand (read+write) misses
system.cpu.dcache.demand_misses::total        1107531                       # number of demand (read+write) misses
system.cpu.dcache.demand_mshr_hits::.switch_cpus.data       779603                       # number of demand (read+write) MSHR hits
system.cpu.dcache.demand_mshr_hits::total       779603                       # number of demand (read+write) MSHR hits
system.cpu.dcache.demand_mshr_miss_latency::.switch_cpus.data   5064769224                       # number of demand (read+write) MSHR miss cycles
system.cpu.dcache.demand_mshr_miss_latency::total   5064769224                       # number of demand (read+write) MSHR miss cycles
system.cpu.dcache.demand_mshr_miss_rate::.switch_cpus.data     0.007883                       # mshr miss rate for demand accesses
system.cpu.dcache.demand_mshr_miss_rate::total     0.007883                       # mshr miss rate for demand accesses
system.cpu.dcache.demand_mshr_misses::.switch_cpus.data       327923                       # number of demand (read+write) MSHR misses
system.cpu.dcache.demand_mshr_misses::total       327923                       # number of demand (read+write) MSHR misses
system.cpu.dcache.overall_accesses::.cpu.data            9                       # number of overall (read+write) accesses
system.cpu.dcache.overall_accesses::.switch_cpus.data     41599807                       # number of overall (read+write) accesses
system.cpu.dcache.overall_accesses::total     41599816                       # number of overall (read+write) accesses
system.cpu.dcache.overall_avg_miss_latency::.switch_cpus.data 13065.504712                       # average overall miss latency
system.cpu.dcache.overall_avg_miss_latency::total 13065.445727                       # average overall miss latency
system.cpu.dcache.overall_avg_mshr_miss_latency::.switch_cpus.data 15444.995392                       # average overall mshr miss latency
system.cpu.dcache.overall_avg_mshr_miss_latency::total 15444.995392                       # average overall mshr miss latency
system.cpu.dcache.overall_hits::.cpu.data            4                       # number of overall hits
system.cpu.dcache.overall_hits::.switch_cpus.data     40492281                       # number of overall hits
system.cpu.dcache.overall_hits::total        40492285                       # number of overall hits
system.cpu.dcache.overall_miss_latency::.switch_cpus.data  14470386172                       # number of overall miss cycles
system.cpu.dcache.overall_miss_latency::total  14470386172                       # number of overall miss cycles
system.cpu.dcache.overall_miss_rate::.cpu.data     0.555556                       # miss rate for overall accesses
system.cpu.dcache.overall_miss_rate::.switch_cpus.data     0.026623                       # miss rate for overall accesses
system.cpu.dcache.overall_miss_rate::total     0.026623                       # miss rate for overall accesses
system.cpu.dcache.overall_misses::.cpu.data            5                       # number of overall misses
system.cpu.dcache.overall_misses::.switch_cpus.data      1107526                       # number of overall misses
system.cpu.dcache.overall_misses::total       1107531                       # number of overall misses
system.cpu.dcache.overall_mshr_hits::.switch_cpus.data       779603                       # number of overall MSHR hits
system.cpu.dcache.overall_mshr_hits::total       779603                       # number of overall MSHR hits
system.cpu.dcache.overall_mshr_miss_latency::.switch_cpus.data   5064769224                       # number of overall MSHR miss cycles
system.cpu.dcache.overall_mshr_miss_latency::total   5064769224                       # number of overall MSHR miss cycles
system.cpu.dcache.overall_mshr_miss_rate::.switch_cpus.data     0.007883                       # mshr miss rate for overall accesses
system.cpu.dcache.overall_mshr_miss_rate::total     0.007883                       # mshr miss rate for overall accesses
system.cpu.dcache.overall_mshr_misses::.switch_cpus.data       327923                       # number of overall MSHR misses
system.cpu.dcache.overall_mshr_misses::total       327923                       # number of overall MSHR misses
system.cpu.dcache.pwrStateResidencyTicks::UNDEFINED 2122194358500                       # Cumulative time (in ticks) in various power states
system.cpu.dcache.replacements                 327416                       # number of replacements
system.cpu.dcache.tags.age_task_id_blocks_1024::0           50                       # Occupied blocks per task id
system.cpu.dcache.tags.age_task_id_blocks_1024::1          403                       # Occupied blocks per task id
system.cpu.dcache.tags.age_task_id_blocks_1024::2           46                       # Occupied blocks per task id
system.cpu.dcache.tags.age_task_id_blocks_1024::3            5                       # Occupied blocks per task id
system.cpu.dcache.tags.age_task_id_blocks_1024::4            8                       # Occupied blocks per task id
system.cpu.dcache.tags.avg_refs            124.479194                       # Average number of references to valid blocks.
system.cpu.dcache.tags.data_accesses        333126456                       # Number of data accesses
system.cpu.dcache.tags.occ_blocks::.cpu.data     1.891417                       # Average occupied blocks per requestor
system.cpu.dcache.tags.occ_blocks::.switch_cpus.data   509.367684                       # Average occupied blocks per requestor
system.cpu.dcache.tags.occ_percent::.cpu.data     0.003694                       # Average percentage of cache occupancy
system.cpu.dcache.tags.occ_percent::.switch_cpus.data     0.994859                       # Average percentage of cache occupancy
system.cpu.dcache.tags.occ_percent::total     0.998553                       # Average percentage of cache occupancy
system.cpu.dcache.tags.occ_task_id_blocks::1024          512                       # Occupied blocks per task id
system.cpu.dcache.tags.occ_task_id_percent::1024            1                       # Percentage of cache occupancy per task id
system.cpu.dcache.tags.pwrStateResidencyTicks::UNDEFINED 2122194358500                       # Cumulative time (in ticks) in various power states
system.cpu.dcache.tags.sampled_refs            327928                       # Sample count of references to valid blocks.
system.cpu.dcache.tags.tag_accesses         333126456                       # Number of tag accesses
system.cpu.dcache.tags.tagsinuse           511.259100                       # Cycle average of tags in use
system.cpu.dcache.tags.total_refs            40820213                       # Total number of references to valid blocks.
system.cpu.dcache.tags.warmup_cycle      2087848950500                       # Cycle when the warmup percentage was hit.
system.cpu.dcache.writebacks::.writebacks       266601                       # number of writebacks
system.cpu.dcache.writebacks::total            266601                       # number of writebacks
system.cpu.dtb.data_accesses                        9                       # DTB accesses
system.cpu.dtb.data_acv                             0                       # DTB access violations
system.cpu.dtb.data_hits                            9                       # DTB hits
system.cpu.dtb.data_misses                          0                       # DTB misses
system.cpu.dtb.fetch_accesses                       0                       # ITB accesses
system.cpu.dtb.fetch_acv                            0                       # ITB acv
system.cpu.dtb.fetch_hits                           0                       # ITB hits
system.cpu.dtb.fetch_misses                         0                       # ITB misses
system.cpu.dtb.pwrStateResidencyTicks::UNDEFINED 2122194358500                       # Cumulative time (in ticks) in various power states
system.cpu.dtb.read_accesses                        5                       # DTB read accesses
system.cpu.dtb.read_acv                             0                       # DTB read access violations
system.cpu.dtb.read_hits                            5                       # DTB read hits
system.cpu.dtb.read_misses                          0                       # DTB read misses
system.cpu.dtb.write_accesses                       4                       # DTB write accesses
system.cpu.dtb.write_acv                            0                       # DTB write access violations
system.cpu.dtb.write_hits                           4                       # DTB write hits
system.cpu.dtb.write_misses                         0                       # DTB write misses
system.cpu.icache.ReadReq_accesses::.cpu.inst           20                       # number of ReadReq accesses(hits+misses)
system.cpu.icache.ReadReq_accesses::.switch_cpus.inst     20474989                       # number of ReadReq accesses(hits+misses)
system.cpu.icache.ReadReq_accesses::total     20475009                       # number of ReadReq accesses(hits+misses)
system.cpu.icache.ReadReq_avg_miss_latency::.switch_cpus.inst 12717.622447                       # average ReadReq miss latency
system.cpu.icache.ReadReq_avg_miss_latency::total 12717.592623                       # average ReadReq miss latency
system.cpu.icache.ReadReq_avg_mshr_miss_latency::.switch_cpus.inst 12314.162347                       # average ReadReq mshr miss latency
system.cpu.icache.ReadReq_avg_mshr_miss_latency::total 12314.162347                       # average ReadReq mshr miss latency
system.cpu.icache.ReadReq_hits::.cpu.inst           18                       # number of ReadReq hits
system.cpu.icache.ReadReq_hits::.switch_cpus.inst     19622145                       # number of ReadReq hits
system.cpu.icache.ReadReq_hits::total        19622163                       # number of ReadReq hits
system.cpu.icache.ReadReq_miss_latency::.switch_cpus.inst  10846147998                       # number of ReadReq miss cycles
system.cpu.icache.ReadReq_miss_latency::total  10846147998                       # number of ReadReq miss cycles
system.cpu.icache.ReadReq_miss_rate::.cpu.inst     0.100000                       # miss rate for ReadReq accesses
system.cpu.icache.ReadReq_miss_rate::.switch_cpus.inst     0.041653                       # miss rate for ReadReq accesses
system.cpu.icache.ReadReq_miss_rate::total     0.041653                       # miss rate for ReadReq accesses
system.cpu.icache.ReadReq_misses::.cpu.inst            2                       # number of ReadReq misses
system.cpu.icache.ReadReq_misses::.switch_cpus.inst       852844                       # number of ReadReq misses
system.cpu.icache.ReadReq_misses::total        852846                       # number of ReadReq misses
system.cpu.icache.ReadReq_mshr_hits::.switch_cpus.inst        75706                       # number of ReadReq MSHR hits
system.cpu.icache.ReadReq_mshr_hits::total        75706                       # number of ReadReq MSHR hits
system.cpu.icache.ReadReq_mshr_miss_latency::.switch_cpus.inst   9569803498                       # number of ReadReq MSHR miss cycles
system.cpu.icache.ReadReq_mshr_miss_latency::total   9569803498                       # number of ReadReq MSHR miss cycles
system.cpu.icache.ReadReq_mshr_miss_rate::.switch_cpus.inst     0.037955                       # mshr miss rate for ReadReq accesses
system.cpu.icache.ReadReq_mshr_miss_rate::total     0.037955                       # mshr miss rate for ReadReq accesses
system.cpu.icache.ReadReq_mshr_misses::.switch_cpus.inst       777138                       # number of ReadReq MSHR misses
system.cpu.icache.ReadReq_mshr_misses::total       777138                       # number of ReadReq MSHR misses
system.cpu.icache.avg_blocked_cycles::no_mshrs    13.470588                       # average number of cycles each access was blocked
system.cpu.icache.avg_blocked_cycles::no_targets          nan                       # average number of cycles each access was blocked
system.cpu.icache.blocked::no_mshrs                85                       # number of cycles access was blocked
system.cpu.icache.blocked::no_targets               0                       # number of cycles access was blocked
system.cpu.icache.blocked_cycles::no_mshrs         1145                       # number of cycles access was blocked
system.cpu.icache.blocked_cycles::no_targets            0                       # number of cycles access was blocked
system.cpu.icache.demand_accesses::.cpu.inst           20                       # number of demand (read+write) accesses
system.cpu.icache.demand_accesses::.switch_cpus.inst     20474989                       # number of demand (read+write) accesses
system.cpu.icache.demand_accesses::total     20475009                       # number of demand (read+write) accesses
system.cpu.icache.demand_avg_miss_latency::.switch_cpus.inst 12717.622447                       # average overall miss latency
system.cpu.icache.demand_avg_miss_latency::total 12717.592623                       # average overall miss latency
system.cpu.icache.demand_avg_mshr_miss_latency::.switch_cpus.inst 12314.162347                       # average overall mshr miss latency
system.cpu.icache.demand_avg_mshr_miss_latency::total 12314.162347                       # average overall mshr miss latency
system.cpu.icache.demand_hits::.cpu.inst           18                       # number of demand (read+write) hits
system.cpu.icache.demand_hits::.switch_cpus.inst     19622145                       # number of demand (read+write) hits
system.cpu.icache.demand_hits::total         19622163                       # number of demand (read+write) hits
system.cpu.icache.demand_miss_latency::.switch_cpus.inst  10846147998                       # number of demand (read+write) miss cycles
system.cpu.icache.demand_miss_latency::total  10846147998                       # number of demand (read+write) miss cycles
system.cpu.icache.demand_miss_rate::.cpu.inst     0.100000                       # miss rate for demand accesses
system.cpu.icache.demand_miss_rate::.switch_cpus.inst     0.041653                       # miss rate for demand accesses
system.cpu.icache.demand_miss_rate::total     0.041653                       # miss rate for demand accesses
system.cpu.icache.demand_misses::.cpu.inst            2                       # number of demand (read+write) misses
system.cpu.icache.demand_misses::.switch_cpus.inst       852844                       # number of demand (read+write) misses
system.cpu.icache.demand_misses::total         852846                       # number of demand (read+write) misses
system.cpu.icache.demand_mshr_hits::.switch_cpus.inst        75706                       # number of demand (read+write) MSHR hits
system.cpu.icache.demand_mshr_hits::total        75706                       # number of demand (read+write) MSHR hits
system.cpu.icache.demand_mshr_miss_latency::.switch_cpus.inst   9569803498                       # number of demand (read+write) MSHR miss cycles
system.cpu.icache.demand_mshr_miss_latency::total   9569803498                       # number of demand (read+write) MSHR miss cycles
system.cpu.icache.demand_mshr_miss_rate::.switch_cpus.inst     0.037955                       # mshr miss rate for demand accesses
system.cpu.icache.demand_mshr_miss_rate::total     0.037955                       # mshr miss rate for demand accesses
system.cpu.icache.demand_mshr_misses::.switch_cpus.inst       777138                       # number of demand (read+write) MSHR misses
system.cpu.icache.demand_mshr_misses::total       777138                       # number of demand (read+write) MSHR misses
system.cpu.icache.overall_accesses::.cpu.inst           20                       # number of overall (read+write) accesses
system.cpu.icache.overall_accesses::.switch_cpus.inst     20474989                       # number of overall (read+write) accesses
system.cpu.icache.overall_accesses::total     20475009                       # number of overall (read+write) accesses
system.cpu.icache.overall_avg_miss_latency::.switch_cpus.inst 12717.622447                       # average overall miss latency
system.cpu.icache.overall_avg_miss_latency::total 12717.592623                       # average overall miss latency
system.cpu.icache.overall_avg_mshr_miss_latency::.switch_cpus.inst 12314.162347                       # average overall mshr miss latency
system.cpu.icache.overall_avg_mshr_miss_latency::total 12314.162347                       # average overall mshr miss latency
system.cpu.icache.overall_hits::.cpu.inst           18                       # number of overall hits
system.cpu.icache.overall_hits::.switch_cpus.inst     19622145                       # number of overall hits
system.cpu.icache.overall_hits::total        19622163                       # number of overall hits
system.cpu.icache.overall_miss_latency::.switch_cpus.inst  10846147998                       # number of overall miss cycles
system.cpu.icache.overall_miss_latency::total  10846147998                       # number of overall miss cycles
system.cpu.icache.overall_miss_rate::.cpu.inst     0.100000                       # miss rate for overall accesses
system.cpu.icache.overall_miss_rate::.switch_cpus.inst     0.041653                       # miss rate for overall accesses
system.cpu.icache.overall_miss_rate::total     0.041653                       # miss rate for overall accesses
system.cpu.icache.overall_misses::.cpu.inst            2                       # number of overall misses
system.cpu.icache.overall_misses::.switch_cpus.inst       852844                       # number of overall misses
system.cpu.icache.overall_misses::total        852846                       # number of overall misses
system.cpu.icache.overall_mshr_hits::.switch_cpus.inst        75706                       # number of overall MSHR hits
system.cpu.icache.overall_mshr_hits::total        75706                       # number of overall MSHR hits
system.cpu.icache.overall_mshr_miss_latency::.switch_cpus.inst   9569803498                       # number of overall MSHR miss cycles
system.cpu.icache.overall_mshr_miss_latency::total   9569803498                       # number of overall MSHR miss cycles
system.cpu.icache.overall_mshr_miss_rate::.switch_cpus.inst     0.037955                       # mshr miss rate for overall accesses
system.cpu.icache.overall_mshr_miss_rate::total     0.037955                       # mshr miss rate for overall accesses
system.cpu.icache.overall_mshr_misses::.switch_cpus.inst       777138                       # number of overall MSHR misses
system.cpu.icache.overall_mshr_misses::total       777138                       # number of overall MSHR misses
system.cpu.icache.pwrStateResidencyTicks::UNDEFINED 2122194358500                       # Cumulative time (in ticks) in various power states
system.cpu.icache.replacements                 776628                       # number of replacements
system.cpu.icache.tags.age_task_id_blocks_1024::0          140                       # Occupied blocks per task id
system.cpu.icache.tags.age_task_id_blocks_1024::1          223                       # Occupied blocks per task id
system.cpu.icache.tags.age_task_id_blocks_1024::2          123                       # Occupied blocks per task id
system.cpu.icache.tags.age_task_id_blocks_1024::3           20                       # Occupied blocks per task id
system.cpu.icache.tags.age_task_id_blocks_1024::4            6                       # Occupied blocks per task id
system.cpu.icache.tags.avg_refs             26.249200                       # Average number of references to valid blocks.
system.cpu.icache.tags.data_accesses        164577212                       # Number of data accesses
system.cpu.icache.tags.occ_blocks::.cpu.inst     0.001506                       # Average occupied blocks per requestor
system.cpu.icache.tags.occ_blocks::.switch_cpus.inst   511.702804                       # Average occupied blocks per requestor
system.cpu.icache.tags.occ_percent::.cpu.inst     0.000003                       # Average percentage of cache occupancy
system.cpu.icache.tags.occ_percent::.switch_cpus.inst     0.999420                       # Average percentage of cache occupancy
system.cpu.icache.tags.occ_percent::total     0.999422                       # Average percentage of cache occupancy
system.cpu.icache.tags.occ_task_id_blocks::1024          512                       # Occupied blocks per task id
system.cpu.icache.tags.occ_task_id_percent::1024            1                       # Percentage of cache occupancy per task id
system.cpu.icache.tags.pwrStateResidencyTicks::UNDEFINED 2122194358500                       # Cumulative time (in ticks) in various power states
system.cpu.icache.tags.sampled_refs            777140                       # Sample count of references to valid blocks.
system.cpu.icache.tags.tag_accesses         164577212                       # Number of tag accesses
system.cpu.icache.tags.tagsinuse           511.704310                       # Cycle average of tags in use
system.cpu.icache.tags.total_refs            20399303                       # Total number of references to valid blocks.
system.cpu.icache.tags.warmup_cycle      2087848950500                       # Cycle when the warmup percentage was hit.
system.cpu.icache.writebacks::.writebacks       776628                       # number of writebacks
system.cpu.icache.writebacks::total            776628                       # number of writebacks
system.cpu.idle_fraction                            0                       # Percentage of idle cycles
system.cpu.itb.data_accesses                        0                       # DTB accesses
system.cpu.itb.data_acv                             0                       # DTB access violations
system.cpu.itb.data_hits                            0                       # DTB hits
system.cpu.itb.data_misses                          0                       # DTB misses
system.cpu.itb.fetch_accesses                      20                       # ITB accesses
system.cpu.itb.fetch_acv                            0                       # ITB acv
system.cpu.itb.fetch_hits                          20                       # ITB hits
system.cpu.itb.fetch_misses                         0                       # ITB misses
system.cpu.itb.pwrStateResidencyTicks::UNDEFINED 2122194358500                       # Cumulative time (in ticks) in various power states
system.cpu.itb.read_accesses                        0                       # DTB read accesses
system.cpu.itb.read_acv                             0                       # DTB read access violations
system.cpu.itb.read_hits                            0                       # DTB read hits
system.cpu.itb.read_misses                          0                       # DTB read misses
system.cpu.itb.write_accesses                       0                       # DTB write accesses
system.cpu.itb.write_acv                            0                       # DTB write access violations
system.cpu.itb.write_hits                           0                       # DTB write hits
system.cpu.itb.write_misses                         0                       # DTB write misses
system.cpu.not_idle_fraction                        1                       # Percentage of non-idle cycles
system.cpu.numCycles                               20                       # number of cpu cycles simulated
system.cpu.numPwrStateTransitions                   1                       # Number of power state transitions
system.cpu.numWorkItemsCompleted                    0                       # number of work items this cpu completed
system.cpu.numWorkItemsStarted                      0                       # number of work items this cpu started
system.cpu.num_busy_cycles                         20                       # Number of busy cycles
system.cpu.num_conditional_control_insts            0                       # number of instructions that are conditional controls
system.cpu.num_fp_alu_accesses                      0                       # Number of float alu accesses
system.cpu.num_fp_insts                             0                       # number of float instructions
system.cpu.num_fp_register_reads                    0                       # number of times the floating registers were read
system.cpu.num_fp_register_writes                   0                       # number of times the floating registers were written
system.cpu.num_func_calls                           0                       # number of times a function call or return occured
system.cpu.num_idle_cycles                          0                       # Number of idle cycles
system.cpu.num_int_alu_accesses                    20                       # Number of integer alu accesses
system.cpu.num_int_insts                           20                       # number of integer instructions
system.cpu.num_int_register_reads                  33                       # number of times the integer registers were read
system.cpu.num_int_register_writes                 16                       # number of times the integer registers were written
system.cpu.num_load_insts                           5                       # Number of load instructions
system.cpu.num_mem_refs                             9                       # number of memory refs
system.cpu.num_store_insts                          4                       # Number of store instructions
system.cpu.num_vec_alu_accesses                     0                       # Number of vector alu accesses
system.cpu.num_vec_insts                            0                       # number of vector instructions
system.cpu.num_vec_register_reads                   0                       # number of times the vector registers were read
system.cpu.num_vec_register_writes                  0                       # number of times the vector registers were written
system.cpu.op_class::No_OpClass                     0      0.00%      0.00% # Class of executed instruction
system.cpu.op_class::IntAlu                        11     55.00%     55.00% # Class of executed instruction
system.cpu.op_class::IntMult                        0      0.00%     55.00% # Class of executed instruction
system.cpu.op_class::IntDiv                         0      0.00%     55.00% # Class of executed instruction
system.cpu.op_class::FloatAdd                       0      0.00%     55.00% # Class of executed instruction
system.cpu.op_class::FloatCmp                       0      0.00%     55.00% # Class of executed instruction
system.cpu.op_class::FloatCvt                       0      0.00%     55.00% # Class of executed instruction
system.cpu.op_class::FloatMult                      0      0.00%     55.00% # Class of executed instruction
system.cpu.op_class::FloatMultAcc                   0      0.00%     55.00% # Class of executed instruction
system.cpu.op_class::FloatDiv                       0      0.00%     55.00% # Class of executed instruction
system.cpu.op_class::FloatMisc                      0      0.00%     55.00% # Class of executed instruction
system.cpu.op_class::FloatSqrt                      0      0.00%     55.00% # Class of executed instruction
system.cpu.op_class::SimdAdd                        0      0.00%     55.00% # Class of executed instruction
system.cpu.op_class::SimdAddAcc                     0      0.00%     55.00% # Class of executed instruction
system.cpu.op_class::SimdAlu                        0      0.00%     55.00% # Class of executed instruction
system.cpu.op_class::SimdCmp                        0      0.00%     55.00% # Class of executed instruction
system.cpu.op_class::SimdCvt                        0      0.00%     55.00% # Class of executed instruction
system.cpu.op_class::SimdMisc                       0      0.00%     55.00% # Class of executed instruction
system.cpu.op_class::SimdMult                       0      0.00%     55.00% # Class of executed instruction
system.cpu.op_class::SimdMultAcc                    0      0.00%     55.00% # Class of executed instruction
system.cpu.op_class::SimdShift                      0      0.00%     55.00% # Class of executed instruction
system.cpu.op_class::SimdShiftAcc                   0      0.00%     55.00% # Class of executed instruction
system.cpu.op_class::SimdSqrt                       0      0.00%     55.00% # Class of executed instruction
system.cpu.op_class::SimdFloatAdd                   0      0.00%     55.00% # Class of executed instruction
system.cpu.op_class::SimdFloatAlu                   0      0.00%     55.00% # Class of executed instruction
system.cpu.op_class::SimdFloatCmp                   0      0.00%     55.00% # Class of executed instruction
system.cpu.op_class::SimdFloatCvt                   0      0.00%     55.00% # Class of executed instruction
system.cpu.op_class::SimdFloatDiv                   0      0.00%     55.00% # Class of executed instruction
system.cpu.op_class::SimdFloatMisc                  0      0.00%     55.00% # Class of executed instruction
system.cpu.op_class::SimdFloatMult                  0      0.00%     55.00% # Class of executed instruction
system.cpu.op_class::SimdFloatMultAcc               0      0.00%     55.00% # Class of executed instruction
system.cpu.op_class::SimdFloatSqrt                  0      0.00%     55.00% # Class of executed instruction
system.cpu.op_class::SimdAes                        0      0.00%     55.00% # Class of executed instruction
system.cpu.op_class::SimdAesMix                     0      0.00%     55.00% # Class of executed instruction
system.cpu.op_class::SimdSha1Hash                   0      0.00%     55.00% # Class of executed instruction
system.cpu.op_class::SimdSha1Hash2                  0      0.00%     55.00% # Class of executed instruction
system.cpu.op_class::SimdSha256Hash                 0      0.00%     55.00% # Class of executed instruction
system.cpu.op_class::SimdSha256Hash2                0      0.00%     55.00% # Class of executed instruction
system.cpu.op_class::SimdShaSigma2                  0      0.00%     55.00% # Class of executed instruction
system.cpu.op_class::SimdShaSigma3                  0      0.00%     55.00% # Class of executed instruction
system.cpu.op_class::MemRead                        5     25.00%     80.00% # Class of executed instruction
system.cpu.op_class::MemWrite                       4     20.00%    100.00% # Class of executed instruction
system.cpu.op_class::FloatMemRead                   0      0.00%    100.00% # Class of executed instruction
system.cpu.op_class::FloatMemWrite                  0      0.00%    100.00% # Class of executed instruction
system.cpu.op_class::IprAccess                      0      0.00%    100.00% # Class of executed instruction
system.cpu.op_class::InstPrefetch                   0      0.00%    100.00% # Class of executed instruction
system.cpu.op_class::total                         20                       # Class of executed instruction
system.cpu.pwrStateResidencyTicks::ON           10000                       # Cumulative time (in ticks) in various power states
system.cpu.pwrStateResidencyTicks::OFF    34345398500                       # Cumulative time (in ticks) in various power states
system.cpu.workload.numSyscalls                     0                       # Number of system calls
system.cpu_clk_domain.clock                       500                       # Clock period in ticks
system.cpu_voltage_domain.voltage                   1                       # Voltage in Volts
system.l2.InvalidateReq_accesses::.switch_cpus.data         4780                       # number of InvalidateReq accesses(hits+misses)
system.l2.InvalidateReq_accesses::total          4780                       # number of InvalidateReq accesses(hits+misses)
system.l2.InvalidateReq_avg_mshr_miss_latency::.switch_cpus.data 19184.210526                       # average InvalidateReq mshr miss latency
system.l2.InvalidateReq_avg_mshr_miss_latency::total 19184.210526                       # average InvalidateReq mshr miss latency
system.l2.InvalidateReq_hits::.switch_cpus.data         4742                       # number of InvalidateReq hits
system.l2.InvalidateReq_hits::total              4742                       # number of InvalidateReq hits
system.l2.InvalidateReq_miss_rate::.switch_cpus.data     0.007950                       # miss rate for InvalidateReq accesses
system.l2.InvalidateReq_miss_rate::total     0.007950                       # miss rate for InvalidateReq accesses
system.l2.InvalidateReq_misses::.switch_cpus.data           38                       # number of InvalidateReq misses
system.l2.InvalidateReq_misses::total              38                       # number of InvalidateReq misses
system.l2.InvalidateReq_mshr_miss_latency::.switch_cpus.data       729000                       # number of InvalidateReq MSHR miss cycles
system.l2.InvalidateReq_mshr_miss_latency::total       729000                       # number of InvalidateReq MSHR miss cycles
system.l2.InvalidateReq_mshr_miss_rate::.switch_cpus.data     0.007950                       # mshr miss rate for InvalidateReq accesses
system.l2.InvalidateReq_mshr_miss_rate::total     0.007950                       # mshr miss rate for InvalidateReq accesses
system.l2.InvalidateReq_mshr_misses::.switch_cpus.data           38                       # number of InvalidateReq MSHR misses
system.l2.InvalidateReq_mshr_misses::total           38                       # number of InvalidateReq MSHR misses
system.l2.ReadCleanReq_accesses::.cpu.inst            2                       # number of ReadCleanReq accesses(hits+misses)
system.l2.ReadCleanReq_accesses::.switch_cpus.inst       777138                       # number of ReadCleanReq accesses(hits+misses)
system.l2.ReadCleanReq_accesses::total         777140                       # number of ReadCleanReq accesses(hits+misses)
system.l2.ReadCleanReq_avg_miss_latency::.switch_cpus.inst 94281.700646                       # average ReadCleanReq miss latency
system.l2.ReadCleanReq_avg_miss_latency::total 94188.027819                       # average ReadCleanReq miss latency
system.l2.ReadCleanReq_avg_mshr_miss_latency::.switch_cpus.inst 84281.700646                       # average ReadCleanReq mshr miss latency
system.l2.ReadCleanReq_avg_mshr_miss_latency::total 84281.700646                       # average ReadCleanReq mshr miss latency
system.l2.ReadCleanReq_hits::.switch_cpus.inst       775127                       # number of ReadCleanReq hits
system.l2.ReadCleanReq_hits::total             775127                       # number of ReadCleanReq hits
system.l2.ReadCleanReq_miss_latency::.switch_cpus.inst    189600500                       # number of ReadCleanReq miss cycles
system.l2.ReadCleanReq_miss_latency::total    189600500                       # number of ReadCleanReq miss cycles
system.l2.ReadCleanReq_miss_rate::.cpu.inst            1                       # miss rate for ReadCleanReq accesses
system.l2.ReadCleanReq_miss_rate::.switch_cpus.inst     0.002588                       # miss rate for ReadCleanReq accesses
system.l2.ReadCleanReq_miss_rate::total      0.002590                       # miss rate for ReadCleanReq accesses
system.l2.ReadCleanReq_misses::.cpu.inst            2                       # number of ReadCleanReq misses
system.l2.ReadCleanReq_misses::.switch_cpus.inst         2011                       # number of ReadCleanReq misses
system.l2.ReadCleanReq_misses::total             2013                       # number of ReadCleanReq misses
system.l2.ReadCleanReq_mshr_miss_latency::.switch_cpus.inst    169490500                       # number of ReadCleanReq MSHR miss cycles
system.l2.ReadCleanReq_mshr_miss_latency::total    169490500                       # number of ReadCleanReq MSHR miss cycles
system.l2.ReadCleanReq_mshr_miss_rate::.switch_cpus.inst     0.002588                       # mshr miss rate for ReadCleanReq accesses
system.l2.ReadCleanReq_mshr_miss_rate::total     0.002588                       # mshr miss rate for ReadCleanReq accesses
system.l2.ReadCleanReq_mshr_misses::.switch_cpus.inst         2011                       # number of ReadCleanReq MSHR misses
system.l2.ReadCleanReq_mshr_misses::total         2011                       # number of ReadCleanReq MSHR misses
system.l2.ReadExReq_accesses::.cpu.data             2                       # number of ReadExReq accesses(hits+misses)
system.l2.ReadExReq_accesses::.switch_cpus.data       206872                       # number of ReadExReq accesses(hits+misses)
system.l2.ReadExReq_accesses::total            206874                       # number of ReadExReq accesses(hits+misses)
system.l2.ReadExReq_avg_miss_latency::.switch_cpus.data 106069.677033                       # average ReadExReq miss latency
system.l2.ReadExReq_avg_miss_latency::total 105942.951016                       # average ReadExReq miss latency
system.l2.ReadExReq_avg_mshr_miss_latency::.switch_cpus.data 96069.677033                       # average ReadExReq mshr miss latency
system.l2.ReadExReq_avg_mshr_miss_latency::total 96069.677033                       # average ReadExReq mshr miss latency
system.l2.ReadExReq_hits::.switch_cpus.data       205200                       # number of ReadExReq hits
system.l2.ReadExReq_hits::total                205200                       # number of ReadExReq hits
system.l2.ReadExReq_miss_latency::.switch_cpus.data    177348500                       # number of ReadExReq miss cycles
system.l2.ReadExReq_miss_latency::total     177348500                       # number of ReadExReq miss cycles
system.l2.ReadExReq_miss_rate::.cpu.data            1                       # miss rate for ReadExReq accesses
system.l2.ReadExReq_miss_rate::.switch_cpus.data     0.008082                       # miss rate for ReadExReq accesses
system.l2.ReadExReq_miss_rate::total         0.008092                       # miss rate for ReadExReq accesses
system.l2.ReadExReq_misses::.cpu.data               2                       # number of ReadExReq misses
system.l2.ReadExReq_misses::.switch_cpus.data         1672                       # number of ReadExReq misses
system.l2.ReadExReq_misses::total                1674                       # number of ReadExReq misses
system.l2.ReadExReq_mshr_miss_latency::.switch_cpus.data    160628500                       # number of ReadExReq MSHR miss cycles
system.l2.ReadExReq_mshr_miss_latency::total    160628500                       # number of ReadExReq MSHR miss cycles
system.l2.ReadExReq_mshr_miss_rate::.switch_cpus.data     0.008082                       # mshr miss rate for ReadExReq accesses
system.l2.ReadExReq_mshr_miss_rate::total     0.008082                       # mshr miss rate for ReadExReq accesses
system.l2.ReadExReq_mshr_misses::.switch_cpus.data         1672                       # number of ReadExReq MSHR misses
system.l2.ReadExReq_mshr_misses::total           1672                       # number of ReadExReq MSHR misses
system.l2.ReadSharedReq_accesses::.cpu.data            3                       # number of ReadSharedReq accesses(hits+misses)
system.l2.ReadSharedReq_accesses::.switch_cpus.data       116271                       # number of ReadSharedReq accesses(hits+misses)
system.l2.ReadSharedReq_accesses::total        116274                       # number of ReadSharedReq accesses(hits+misses)
system.l2.ReadSharedReq_avg_miss_latency::.switch_cpus.data 152655.087527                       # average ReadSharedReq miss latency
system.l2.ReadSharedReq_avg_miss_latency::total 152571.623838                       # average ReadSharedReq miss latency
system.l2.ReadSharedReq_avg_mshr_miss_latency::.switch_cpus.data 142655.087527                       # average ReadSharedReq mshr miss latency
system.l2.ReadSharedReq_avg_mshr_miss_latency::total 142655.087527                       # average ReadSharedReq mshr miss latency
system.l2.ReadSharedReq_hits::.switch_cpus.data       110787                       # number of ReadSharedReq hits
system.l2.ReadSharedReq_hits::total            110787                       # number of ReadSharedReq hits
system.l2.ReadSharedReq_miss_latency::.switch_cpus.data    837160500                       # number of ReadSharedReq miss cycles
system.l2.ReadSharedReq_miss_latency::total    837160500                       # number of ReadSharedReq miss cycles
system.l2.ReadSharedReq_miss_rate::.cpu.data            1                       # miss rate for ReadSharedReq accesses
system.l2.ReadSharedReq_miss_rate::.switch_cpus.data     0.047166                       # miss rate for ReadSharedReq accesses
system.l2.ReadSharedReq_miss_rate::total     0.047190                       # miss rate for ReadSharedReq accesses
system.l2.ReadSharedReq_misses::.cpu.data            3                       # number of ReadSharedReq misses
system.l2.ReadSharedReq_misses::.switch_cpus.data         5484                       # number of ReadSharedReq misses
system.l2.ReadSharedReq_misses::total            5487                       # number of ReadSharedReq misses
system.l2.ReadSharedReq_mshr_miss_latency::.switch_cpus.data    782320500                       # number of ReadSharedReq MSHR miss cycles
system.l2.ReadSharedReq_mshr_miss_latency::total    782320500                       # number of ReadSharedReq MSHR miss cycles
system.l2.ReadSharedReq_mshr_miss_rate::.switch_cpus.data     0.047166                       # mshr miss rate for ReadSharedReq accesses
system.l2.ReadSharedReq_mshr_miss_rate::total     0.047164                       # mshr miss rate for ReadSharedReq accesses
system.l2.ReadSharedReq_mshr_misses::.switch_cpus.data         5484                       # number of ReadSharedReq MSHR misses
system.l2.ReadSharedReq_mshr_misses::total         5484                       # number of ReadSharedReq MSHR misses
system.l2.WritebackClean_accesses::.writebacks       776627                       # number of WritebackClean accesses(hits+misses)
system.l2.WritebackClean_accesses::total       776627                       # number of WritebackClean accesses(hits+misses)
system.l2.WritebackClean_hits::.writebacks       776627                       # number of WritebackClean hits
system.l2.WritebackClean_hits::total           776627                       # number of WritebackClean hits
system.l2.WritebackDirty_accesses::.writebacks       266601                       # number of WritebackDirty accesses(hits+misses)
system.l2.WritebackDirty_accesses::total       266601                       # number of WritebackDirty accesses(hits+misses)
system.l2.WritebackDirty_hits::.writebacks       266601                       # number of WritebackDirty hits
system.l2.WritebackDirty_hits::total           266601                       # number of WritebackDirty hits
system.l2.avg_blocked_cycles::no_mshrs            nan                       # average number of cycles each access was blocked
system.l2.avg_blocked_cycles::no_targets          nan                       # average number of cycles each access was blocked
system.l2.blocked::no_mshrs                         0                       # number of cycles access was blocked
system.l2.blocked::no_targets                       0                       # number of cycles access was blocked
system.l2.blocked_cycles::no_mshrs                  0                       # number of cycles access was blocked
system.l2.blocked_cycles::no_targets                0                       # number of cycles access was blocked
system.l2.demand_accesses::.cpu.inst                2                       # number of demand (read+write) accesses
system.l2.demand_accesses::.cpu.data                5                       # number of demand (read+write) accesses
system.l2.demand_accesses::.switch_cpus.inst       777138                       # number of demand (read+write) accesses
system.l2.demand_accesses::.switch_cpus.data       323143                       # number of demand (read+write) accesses
system.l2.demand_accesses::total              1100288                       # number of demand (read+write) accesses
system.l2.demand_avg_miss_latency::.switch_cpus.inst 94281.700646                       # average overall miss latency
system.l2.demand_avg_miss_latency::.switch_cpus.data 141770.402459                       # average overall miss latency
system.l2.demand_avg_miss_latency::total 131252.398082                       # average overall miss latency
system.l2.demand_avg_mshr_miss_latency::.switch_cpus.inst 84281.700646                       # average overall mshr miss latency
system.l2.demand_avg_mshr_miss_latency::.switch_cpus.data 131770.402459                       # average overall mshr miss latency
system.l2.demand_avg_mshr_miss_latency::total 121352.623541                       # average overall mshr miss latency
system.l2.demand_hits::.switch_cpus.inst       775127                       # number of demand (read+write) hits
system.l2.demand_hits::.switch_cpus.data       315987                       # number of demand (read+write) hits
system.l2.demand_hits::total                  1091114                       # number of demand (read+write) hits
system.l2.demand_miss_latency::.switch_cpus.inst    189600500                       # number of demand (read+write) miss cycles
system.l2.demand_miss_latency::.switch_cpus.data   1014509000                       # number of demand (read+write) miss cycles
system.l2.demand_miss_latency::total       1204109500                       # number of demand (read+write) miss cycles
system.l2.demand_miss_rate::.cpu.inst               1                       # miss rate for demand accesses
system.l2.demand_miss_rate::.cpu.data               1                       # miss rate for demand accesses
system.l2.demand_miss_rate::.switch_cpus.inst     0.002588                       # miss rate for demand accesses
system.l2.demand_miss_rate::.switch_cpus.data     0.022145                       # miss rate for demand accesses
system.l2.demand_miss_rate::total            0.008338                       # miss rate for demand accesses
system.l2.demand_misses::.cpu.inst                  2                       # number of demand (read+write) misses
system.l2.demand_misses::.cpu.data                  5                       # number of demand (read+write) misses
system.l2.demand_misses::.switch_cpus.inst         2011                       # number of demand (read+write) misses
system.l2.demand_misses::.switch_cpus.data         7156                       # number of demand (read+write) misses
system.l2.demand_misses::total                   9174                       # number of demand (read+write) misses
system.l2.demand_mshr_miss_latency::.switch_cpus.inst    169490500                       # number of demand (read+write) MSHR miss cycles
system.l2.demand_mshr_miss_latency::.switch_cpus.data    942949000                       # number of demand (read+write) MSHR miss cycles
system.l2.demand_mshr_miss_latency::total   1112439500                       # number of demand (read+write) MSHR miss cycles
system.l2.demand_mshr_miss_rate::.switch_cpus.inst     0.002588                       # mshr miss rate for demand accesses
system.l2.demand_mshr_miss_rate::.switch_cpus.data     0.022145                       # mshr miss rate for demand accesses
system.l2.demand_mshr_miss_rate::total       0.008331                       # mshr miss rate for demand accesses
system.l2.demand_mshr_misses::.switch_cpus.inst         2011                       # number of demand (read+write) MSHR misses
system.l2.demand_mshr_misses::.switch_cpus.data         7156                       # number of demand (read+write) MSHR misses
system.l2.demand_mshr_misses::total              9167                       # number of demand (read+write) MSHR misses
system.l2.overall_accesses::.cpu.inst               2                       # number of overall (read+write) accesses
system.l2.overall_accesses::.cpu.data               5                       # number of overall (read+write) accesses
system.l2.overall_accesses::.switch_cpus.inst       777138                       # number of overall (read+write) accesses
system.l2.overall_accesses::.switch_cpus.data       323143                       # number of overall (read+write) accesses
system.l2.overall_accesses::total             1100288                       # number of overall (read+write) accesses
system.l2.overall_avg_miss_latency::.switch_cpus.inst 94281.700646                       # average overall miss latency
system.l2.overall_avg_miss_latency::.switch_cpus.data 141770.402459                       # average overall miss latency
system.l2.overall_avg_miss_latency::total 131252.398082                       # average overall miss latency
system.l2.overall_avg_mshr_miss_latency::.switch_cpus.inst 84281.700646                       # average overall mshr miss latency
system.l2.overall_avg_mshr_miss_latency::.switch_cpus.data 131770.402459                       # average overall mshr miss latency
system.l2.overall_avg_mshr_miss_latency::total 121352.623541                       # average overall mshr miss latency
system.l2.overall_hits::.switch_cpus.inst       775127                       # number of overall hits
system.l2.overall_hits::.switch_cpus.data       315987                       # number of overall hits
system.l2.overall_hits::total                 1091114                       # number of overall hits
system.l2.overall_miss_latency::.switch_cpus.inst    189600500                       # number of overall miss cycles
system.l2.overall_miss_latency::.switch_cpus.data   1014509000                       # number of overall miss cycles
system.l2.overall_miss_latency::total      1204109500                       # number of overall miss cycles
system.l2.overall_miss_rate::.cpu.inst              1                       # miss rate for overall accesses
system.l2.overall_miss_rate::.cpu.data              1                       # miss rate for overall accesses
system.l2.overall_miss_rate::.switch_cpus.inst     0.002588                       # miss rate for overall accesses
system.l2.overall_miss_rate::.switch_cpus.data     0.022145                       # miss rate for overall accesses
system.l2.overall_miss_rate::total           0.008338                       # miss rate for overall accesses
system.l2.overall_misses::.cpu.inst                 2                       # number of overall misses
system.l2.overall_misses::.cpu.data                 5                       # number of overall misses
system.l2.overall_misses::.switch_cpus.inst         2011                       # number of overall misses
system.l2.overall_misses::.switch_cpus.data         7156                       # number of overall misses
system.l2.overall_misses::total                  9174                       # number of overall misses
system.l2.overall_mshr_miss_latency::.switch_cpus.inst    169490500                       # number of overall MSHR miss cycles
system.l2.overall_mshr_miss_latency::.switch_cpus.data    942949000                       # number of overall MSHR miss cycles
system.l2.overall_mshr_miss_latency::total   1112439500                       # number of overall MSHR miss cycles
system.l2.overall_mshr_miss_rate::.switch_cpus.inst     0.002588                       # mshr miss rate for overall accesses
system.l2.overall_mshr_miss_rate::.switch_cpus.data     0.022145                       # mshr miss rate for overall accesses
system.l2.overall_mshr_miss_rate::total      0.008331                       # mshr miss rate for overall accesses
system.l2.overall_mshr_misses::.switch_cpus.inst         2011                       # number of overall MSHR misses
system.l2.overall_mshr_misses::.switch_cpus.data         7156                       # number of overall MSHR misses
system.l2.overall_mshr_misses::total             9167                       # number of overall MSHR misses
system.l2.pwrStateResidencyTicks::UNDEFINED 2122194358500                       # Cumulative time (in ticks) in various power states
system.l2.replacements                              0                       # number of replacements
system.l2.tags.age_task_id_blocks_1024::0            2                       # Occupied blocks per task id
system.l2.tags.age_task_id_blocks_1024::1           11                       # Occupied blocks per task id
system.l2.tags.age_task_id_blocks_1024::2          616                       # Occupied blocks per task id
system.l2.tags.age_task_id_blocks_1024::3         2361                       # Occupied blocks per task id
system.l2.tags.age_task_id_blocks_1024::4         6207                       # Occupied blocks per task id
system.l2.tags.avg_refs                    158.481455                       # Average number of references to valid blocks.
system.l2.tags.data_accesses                 35359715                       # Number of data accesses
system.l2.tags.occ_blocks::.writebacks     349.666331                       # Average occupied blocks per requestor
system.l2.tags.occ_blocks::.cpu.inst         2.000000                       # Average occupied blocks per requestor
system.l2.tags.occ_blocks::.cpu.data         3.602447                       # Average occupied blocks per requestor
system.l2.tags.occ_blocks::.switch_cpus.inst  1642.154658                       # Average occupied blocks per requestor
system.l2.tags.occ_blocks::.switch_cpus.data  3446.287721                       # Average occupied blocks per requestor
system.l2.tags.occ_percent::.writebacks      0.010671                       # Average percentage of cache occupancy
system.l2.tags.occ_percent::.cpu.inst        0.000061                       # Average percentage of cache occupancy
system.l2.tags.occ_percent::.cpu.data        0.000110                       # Average percentage of cache occupancy
system.l2.tags.occ_percent::.switch_cpus.inst     0.050115                       # Average percentage of cache occupancy
system.l2.tags.occ_percent::.switch_cpus.data     0.105172                       # Average percentage of cache occupancy
system.l2.tags.occ_percent::total            0.166129                       # Average percentage of cache occupancy
system.l2.tags.occ_task_id_blocks::1024          9197                       # Occupied blocks per task id
system.l2.tags.occ_task_id_percent::1024     0.280670                       # Percentage of cache occupancy per task id
system.l2.tags.pwrStateResidencyTicks::UNDEFINED 2122194358500                       # Cumulative time (in ticks) in various power states
system.l2.tags.sampled_refs                     13939                       # Sample count of references to valid blocks.
system.l2.tags.tag_accesses                  35359715                       # Number of tag accesses
system.l2.tags.tagsinuse                  5443.711157                       # Cycle average of tags in use
system.l2.tags.total_refs                     2209073                       # Total number of references to valid blocks.
system.l2.tags.warmup_cycle              2087848950500                       # Cycle when the warmup percentage was hit.
system.mem_ctrls.avgBusLat                    5000.00                       # Average bus latency per DRAM burst
system.mem_ctrls.avgGap                    3741496.35                       # Average gap between requests
system.mem_ctrls.avgMemAccLat                80119.42                       # Average memory access latency per DRAM burst
system.mem_ctrls.avgPriority_.switch_cpus.inst::samples      2011.00                       # Average QoS priority value for accepted requests
system.mem_ctrls.avgPriority_.switch_cpus.data::samples      7156.00                       # Average QoS priority value for accepted requests
system.mem_ctrls.avgQLat                     61369.42                       # Average queueing delay per DRAM burst
system.mem_ctrls.avgRdBW                        17.08                       # Average DRAM read bandwidth in MiByte/s
system.mem_ctrls.avgRdBWSys                     17.08                       # Average system read bandwidth in MiByte/s
system.mem_ctrls.avgRdQLen                       1.26                       # Average read queue length when enqueuing
system.mem_ctrls.avgWrBW                         0.00                       # Average achieved write bandwidth in MiByte/s
system.mem_ctrls.avgWrBWSys                      0.00                       # Average system write bandwidth in MiByte/s
system.mem_ctrls.avgWrQLen                       0.00                       # Average write queue length when enqueuing
system.mem_ctrls.busUtil                         0.13                       # Data bus utilization in percentage
system.mem_ctrls.busUtilRead                     0.13                       # Data bus utilization in percentage for reads
system.mem_ctrls.busUtilWrite                    0.00                       # Data bus utilization in percentage for writes
system.mem_ctrls.bw_inst_read::.cpu.inst         3727                       # Instruction read bandwidth from this memory (bytes/s)
system.mem_ctrls.bw_inst_read::.switch_cpus.inst      3747342                       # Instruction read bandwidth from this memory (bytes/s)
system.mem_ctrls.bw_inst_read::total          3751069                       # Instruction read bandwidth from this memory (bytes/s)
system.mem_ctrls.bw_read::.cpu.inst              3727                       # Total read bandwidth from this memory (bytes/s)
system.mem_ctrls.bw_read::.cpu.data              9317                       # Total read bandwidth from this memory (bytes/s)
system.mem_ctrls.bw_read::.switch_cpus.inst      3747342                       # Total read bandwidth from this memory (bytes/s)
system.mem_ctrls.bw_read::.switch_cpus.data     13334650                       # Total read bandwidth from this memory (bytes/s)
system.mem_ctrls.bw_read::total              17095036                       # Total read bandwidth from this memory (bytes/s)
system.mem_ctrls.bw_total::.cpu.inst             3727                       # Total bandwidth to/from this memory (bytes/s)
system.mem_ctrls.bw_total::.cpu.data             9317                       # Total bandwidth to/from this memory (bytes/s)
system.mem_ctrls.bw_total::.switch_cpus.inst      3747342                       # Total bandwidth to/from this memory (bytes/s)
system.mem_ctrls.bw_total::.switch_cpus.data     13334650                       # Total bandwidth to/from this memory (bytes/s)
system.mem_ctrls.bw_total::total             17095036                       # Total bandwidth to/from this memory (bytes/s)
system.mem_ctrls.bytesPerActivate::samples         5444                       # Bytes accessed per row activation
system.mem_ctrls.bytesPerActivate::mean    107.767818                       # Bytes accessed per row activation
system.mem_ctrls.bytesPerActivate::gmean    80.444611                       # Bytes accessed per row activation
system.mem_ctrls.bytesPerActivate::stdev   150.604945                       # Bytes accessed per row activation
system.mem_ctrls.bytesPerActivate::0-127         4467     82.05%     82.05% # Bytes accessed per row activation
system.mem_ctrls.bytesPerActivate::128-255          586     10.76%     92.82% # Bytes accessed per row activation
system.mem_ctrls.bytesPerActivate::256-383          148      2.72%     95.54% # Bytes accessed per row activation
system.mem_ctrls.bytesPerActivate::384-511           56      1.03%     96.57% # Bytes accessed per row activation
system.mem_ctrls.bytesPerActivate::512-639           49      0.90%     97.47% # Bytes accessed per row activation
system.mem_ctrls.bytesPerActivate::640-767           23      0.42%     97.89% # Bytes accessed per row activation
system.mem_ctrls.bytesPerActivate::768-895           13      0.24%     98.13% # Bytes accessed per row activation
system.mem_ctrls.bytesPerActivate::896-1023           24      0.44%     98.57% # Bytes accessed per row activation
system.mem_ctrls.bytesPerActivate::1024-1151           78      1.43%    100.00% # Bytes accessed per row activation
system.mem_ctrls.bytesPerActivate::total         5444                       # Bytes accessed per row activation
system.mem_ctrls.bytesReadDRAM                 586688                       # Total number of bytes read from DRAM
system.mem_ctrls.bytesReadSys                  586688                       # Total read bytes from the system interface side
system.mem_ctrls.bytesReadWrQ                       0                       # Total number of bytes read from write queue
system.mem_ctrls.bytesWritten                       0                       # Total number of bytes written to DRAM
system.mem_ctrls.bytesWrittenSys                    0                       # Total written bytes from the system interface side
system.mem_ctrls.bytes_inst_read::.cpu.inst          128                       # Number of instructions bytes read from this memory
system.mem_ctrls.bytes_inst_read::.switch_cpus.inst       128704                       # Number of instructions bytes read from this memory
system.mem_ctrls.bytes_inst_read::total        128832                       # Number of instructions bytes read from this memory
system.mem_ctrls.bytes_read::.cpu.inst            128                       # Number of bytes read from this memory
system.mem_ctrls.bytes_read::.cpu.data            320                       # Number of bytes read from this memory
system.mem_ctrls.bytes_read::.switch_cpus.inst       128704                       # Number of bytes read from this memory
system.mem_ctrls.bytes_read::.switch_cpus.data       457984                       # Number of bytes read from this memory
system.mem_ctrls.bytes_read::total             587136                       # Number of bytes read from this memory
system.mem_ctrls.masterReadAccesses::.switch_cpus.inst         2011                       # Per-master read serviced memory accesses
system.mem_ctrls.masterReadAccesses::.switch_cpus.data         7156                       # Per-master read serviced memory accesses
system.mem_ctrls.masterReadAvgLat::.switch_cpus.inst     43130.91                       # Per-master read average memory access latency
system.mem_ctrls.masterReadAvgLat::.switch_cpus.data     90514.04                       # Per-master read average memory access latency
system.mem_ctrls.masterReadBytes::.switch_cpus.inst       128704                       # Per-master bytes read from memory
system.mem_ctrls.masterReadBytes::.switch_cpus.data       457984                       # Per-master bytes read from memory
system.mem_ctrls.masterReadRate::.switch_cpus.inst 3747342.239356390201                       # Per-master bytes read from memory rate (Bytes/sec)
system.mem_ctrls.masterReadRate::.switch_cpus.data 13334649.957650087774                       # Per-master bytes read from memory rate (Bytes/sec)
system.mem_ctrls.masterReadTotalLat::.switch_cpus.inst     86736250                       # Per-master read total memory access latency
system.mem_ctrls.masterReadTotalLat::.switch_cpus.data    647718500                       # Per-master read total memory access latency
system.mem_ctrls.mergedWrBursts                     0                       # Number of DRAM write bursts merged with an existing one
system.mem_ctrls.neitherReadNorWriteReqs            0                       # Number of requests that are neither read nor write
system.mem_ctrls.numRdRetry                         0                       # Number of times read queue was full causing retry
system.mem_ctrls.numReadWriteTurnArounds            0                       # Number of turnarounds from READ to WRITE
system.mem_ctrls.numStayReadState               20821                       # Number of times bus staying in READ state
system.mem_ctrls.numStayWriteState                  0                       # Number of times bus staying in WRITE state
system.mem_ctrls.numWrRetry                         0                       # Number of times write queue was full causing retry
system.mem_ctrls.numWriteReadTurnArounds            0                       # Number of turnarounds from WRITE to READ
system.mem_ctrls.num_reads::.cpu.inst               2                       # Number of read requests responded to by this memory
system.mem_ctrls.num_reads::.cpu.data               5                       # Number of read requests responded to by this memory
system.mem_ctrls.num_reads::.switch_cpus.inst         2011                       # Number of read requests responded to by this memory
system.mem_ctrls.num_reads::.switch_cpus.data         7156                       # Number of read requests responded to by this memory
system.mem_ctrls.num_reads::total                9174                       # Number of read requests responded to by this memory
system.mem_ctrls.pageHitRate                    40.61                       # Row buffer hit rate, read and write combined
system.mem_ctrls.peakBW                      12800.00                       # Theoretical peak bandwidth in MiByte/s
system.mem_ctrls.perBankRdBursts::0               442                       # Per bank write bursts
system.mem_ctrls.perBankRdBursts::1               466                       # Per bank write bursts
system.mem_ctrls.perBankRdBursts::2               608                       # Per bank write bursts
system.mem_ctrls.perBankRdBursts::3               550                       # Per bank write bursts
system.mem_ctrls.perBankRdBursts::4               533                       # Per bank write bursts
system.mem_ctrls.perBankRdBursts::5               640                       # Per bank write bursts
system.mem_ctrls.perBankRdBursts::6               564                       # Per bank write bursts
system.mem_ctrls.perBankRdBursts::7               573                       # Per bank write bursts
system.mem_ctrls.perBankRdBursts::8               631                       # Per bank write bursts
system.mem_ctrls.perBankRdBursts::9               600                       # Per bank write bursts
system.mem_ctrls.perBankRdBursts::10              766                       # Per bank write bursts
system.mem_ctrls.perBankRdBursts::11              635                       # Per bank write bursts
system.mem_ctrls.perBankRdBursts::12              549                       # Per bank write bursts
system.mem_ctrls.perBankRdBursts::13              500                       # Per bank write bursts
system.mem_ctrls.perBankRdBursts::14              671                       # Per bank write bursts
system.mem_ctrls.perBankRdBursts::15              439                       # Per bank write bursts
system.mem_ctrls.perBankWrBursts::0                 0                       # Per bank write bursts
system.mem_ctrls.perBankWrBursts::1                 0                       # Per bank write bursts
system.mem_ctrls.perBankWrBursts::2                 0                       # Per bank write bursts
system.mem_ctrls.perBankWrBursts::3                 0                       # Per bank write bursts
system.mem_ctrls.perBankWrBursts::4                 0                       # Per bank write bursts
system.mem_ctrls.perBankWrBursts::5                 0                       # Per bank write bursts
system.mem_ctrls.perBankWrBursts::6                 0                       # Per bank write bursts
system.mem_ctrls.perBankWrBursts::7                 0                       # Per bank write bursts
system.mem_ctrls.perBankWrBursts::8                 0                       # Per bank write bursts
system.mem_ctrls.perBankWrBursts::9                 0                       # Per bank write bursts
system.mem_ctrls.perBankWrBursts::10                0                       # Per bank write bursts
system.mem_ctrls.perBankWrBursts::11                0                       # Per bank write bursts
system.mem_ctrls.perBankWrBursts::12                0                       # Per bank write bursts
system.mem_ctrls.perBankWrBursts::13                0                       # Per bank write bursts
system.mem_ctrls.perBankWrBursts::14                0                       # Per bank write bursts
system.mem_ctrls.perBankWrBursts::15                0                       # Per bank write bursts
system.mem_ctrls.priorityMaxLatency      0.000001142500                       # per QoS priority maximum request to response latency (s)
system.mem_ctrls.priorityMinLatency      0.000000018750                       # per QoS priority minimum request to response latency (s)
system.mem_ctrls.pwrStateResidencyTicks::UNDEFINED 2122194358500                       # Cumulative time (in ticks) in various power states
system.mem_ctrls.rdQLenPdf::0                    6800                       # What read queue length does an incoming req see
system.mem_ctrls.rdQLenPdf::1                    1676                       # What read queue length does an incoming req see
system.mem_ctrls.rdQLenPdf::2                     464                       # What read queue length does an incoming req see
[...]
system.switch_cpus.iq.fu_full::No_OpClass            0      0.00%      0.00% # attempts to use FU when none available
system.switch_cpus.iq.fu_full::IntAlu          420281     16.25%     16.25% # attempts to use FU when none available
system.switch_cpus.iq.fu_full::IntMult             19      0.00%     16.25% # attempts to use FU when none available
system.switch_cpus.iq.fu_full::IntDiv               0      0.00%     16.25% # attempts to use FU when none available
system.switch_cpus.iq.fu_full::FloatAdd             0      0.00%     16.25% # attempts to use FU when none available
system.switch_cpus.iq.fu_full::FloatCmp             0      0.00%     16.25% # attempts to use FU when none available
system.switch_cpus.iq.fu_full::FloatCvt             0      0.00%     16.25% # attempts to use FU when none available
system.switch_cpus.iq.fu_full::FloatMult            0      0.00%     16.25% # attempts to use FU when none available
system.switch_cpus.iq.fu_full::FloatMultAcc            0      0.00%     16.25% # attempts to use FU when none available
system.switch_cpus.iq.fu_full::FloatDiv             0      0.00%     16.25% # attempts to use FU when none available
system.switch_cpus.iq.fu_full::FloatMisc            0      0.00%     16.25% # attempts to use FU when none available
system.switch_cpus.iq.fu_full::FloatSqrt            0      0.00%     16.25% # attempts to use FU when none available
system.switch_cpus.iq.fu_full::SimdAdd              0      0.00%     16.25% # attempts to use FU when none available
system.switch_cpus.iq.fu_full::SimdAddAcc            0      0.00%     16.25% # attempts to use FU when none available
system.switch_cpus.iq.fu_full::SimdAlu              0      0.00%     16.25% # attempts to use FU when none available
system.switch_cpus.iq.fu_full::SimdCmp              0      0.00%     16.25% # attempts to use FU when none available
system.switch_cpus.iq.fu_full::SimdCvt              0      0.00%     16.25% # attempts to use FU when none available
system.switch_cpus.iq.fu_full::SimdMisc             0      0.00%     16.25% # attempts to use FU when none available
system.switch_cpus.iq.fu_full::SimdMult             0      0.00%     16.25% # attempts to use FU when none available
system.switch_cpus.iq.fu_full::SimdMultAcc            0      0.00%     16.25% # attempts to use FU when none available
system.switch_cpus.iq.fu_full::SimdShift            0      0.00%     16.25% # attempts to use FU when none available
system.switch_cpus.iq.fu_full::SimdShiftAcc            0      0.00%     16.25% # attempts to use FU when none available
system.switch_cpus.iq.fu_full::SimdSqrt             0      0.00%     16.25% # attempts to use FU when none available
system.switch_cpus.iq.fu_full::SimdFloatAdd            0      0.00%     16.25% # attempts to use FU when none available
system.switch_cpus.iq.fu_full::SimdFloatAlu            0      0.00%     16.25% # attempts to use FU when none available
system.switch_cpus.iq.fu_full::SimdFloatCmp            0      0.00%     16.25% # attempts to use FU when none available
system.switch_cpus.iq.fu_full::SimdFloatCvt            0      0.00%     16.25% # attempts to use FU when none available
system.switch_cpus.iq.fu_full::SimdFloatDiv            0      0.00%     16.25% # attempts to use FU when none available
system.switch_cpus.iq.fu_full::SimdFloatMisc            0      0.00%     16.25% # attempts to use FU when none available
system.switch_cpus.iq.fu_full::SimdFloatMult            0      0.00%     16.25% # attempts to use FU when none available
system.switch_cpus.iq.fu_full::SimdFloatMultAcc            0      0.00%     16.25% # attempts to use FU when none available
system.switch_cpus.iq.fu_full::SimdFloatSqrt            0      0.00%     16.25% # attempts to use FU when none available
system.switch_cpus.iq.fu_full::SimdAes              0      0.00%     16.25% # attempts to use FU when none available
system.switch_cpus.iq.fu_full::SimdAesMix            0      0.00%     16.25% # attempts to use FU when none available
system.switch_cpus.iq.fu_full::SimdSha1Hash            0      0.00%     16.25% # attempts to use FU when none available
system.switch_cpus.iq.fu_full::SimdSha1Hash2            0      0.00%     16.25% # attempts to use FU when none available
system.switch_cpus.iq.fu_full::SimdSha256Hash            0      0.00%     16.25% # attempts to use FU when none available
system.switch_cpus.iq.fu_full::SimdSha256Hash2            0      0.00%     16.25% # attempts to use FU when none available
system.switch_cpus.iq.fu_full::SimdShaSigma2            0      0.00%     16.25% # attempts to use FU when none available
system.switch_cpus.iq.fu_full::SimdShaSigma3            0      0.00%     16.25% # attempts to use FU when none available
system.switch_cpus.iq.fu_full::MemRead        1171963     45.32%     61.57% # attempts to use FU when none available
system.switch_cpus.iq.fu_full::MemWrite        986126     38.13%     99.70% # attempts to use FU when none available
system.switch_cpus.iq.fu_full::FloatMemRead         3079      0.12%     99.82% # attempts to use FU when none available
system.switch_cpus.iq.fu_full::FloatMemWrite         4678      0.18%    100.00% # attempts to use FU when none available
system.switch_cpus.iq.fu_full::IprAccess            0      0.00%    100.00% # attempts to use FU when none available
system.switch_cpus.iq.fu_full::InstPrefetch            0      0.00%    100.00% # attempts to use FU when none available
system.switch_cpus.iq.int_alu_accesses      128402007                       # Number of integer alu accesses
system.switch_cpus.iq.int_inst_queue_reads    322909983                       # Number of integer instruction queue reads
system.switch_cpus.iq.int_inst_queue_wakeup_accesses    120096650                       # Number of integer instruction queue wakeup accesses
system.switch_cpus.iq.int_inst_queue_writes    174584099                       # Number of integer instruction queue writes
system.switch_cpus.iq.iqInstsAdded          137367579                       # Number of instructions added to the IQ (excludes non-spec)
system.switch_cpus.iq.iqInstsIssued         125980212                       # Number of instructions issued
system.switch_cpus.iq.iqSquashedInstsExamined     37367550                       # Number of squashed instructions iterated over during squash; mainly for profiling
system.switch_cpus.iq.iqSquashedInstsIssued       227159                       # Number of squashed instructions issued
system.switch_cpus.iq.iqSquashedOperandsExamined     21576170                       # Number of squashed operands that are examined and possibly removed from graph
system.switch_cpus.iq.issued_per_cycle::samples     68421327                       # Number of insts issued each cycle
system.switch_cpus.iq.issued_per_cycle::mean     1.841242                       # Number of insts issued each cycle
system.switch_cpus.iq.issued_per_cycle::stdev     2.190393                       # Number of insts issued each cycle
system.switch_cpus.iq.issued_per_cycle::underflows            0      0.00%      0.00% # Number of insts issued each cycle
system.switch_cpus.iq.issued_per_cycle::0     29893087     43.69%     43.69% # Number of insts issued each cycle
system.switch_cpus.iq.issued_per_cycle::1      8835638     12.91%     56.60% # Number of insts issued each cycle
system.switch_cpus.iq.issued_per_cycle::2      8027205     11.73%     68.34% # Number of insts issued each cycle
system.switch_cpus.iq.issued_per_cycle::3      6111812      8.93%     77.27% # Number of insts issued each cycle
system.switch_cpus.iq.issued_per_cycle::4      5246031      7.67%     84.94% # Number of insts issued each cycle
system.switch_cpus.iq.issued_per_cycle::5      4074772      5.96%     90.89% # Number of insts issued each cycle
system.switch_cpus.iq.issued_per_cycle::6      3280658      4.79%     95.69% # Number of insts issued each cycle
system.switch_cpus.iq.issued_per_cycle::7      1904196      2.78%     98.47% # Number of insts issued each cycle
system.switch_cpus.iq.issued_per_cycle::8      1047928      1.53%    100.00% # Number of insts issued each cycle
system.switch_cpus.iq.issued_per_cycle::overflows            0      0.00%    100.00% # Number of insts issued each cycle
system.switch_cpus.iq.issued_per_cycle::min_value            0                       # Number of insts issued each cycle
system.switch_cpus.iq.issued_per_cycle::max_value            8                       # Number of insts issued each cycle
system.switch_cpus.iq.issued_per_cycle::total     68421327                       # Number of insts issued each cycle
system.switch_cpus.iq.rate                   1.834019                       # Inst issue rate
system.switch_cpus.iq.vec_alu_accesses              0                       # Number of vector alu accesses
system.switch_cpus.iq.vec_inst_queue_reads            0                       # Number of vector instruction queue reads
system.switch_cpus.iq.vec_inst_queue_wakeup_accesses            0                       # Number of vector instruction queue wakeup accesses
system.switch_cpus.iq.vec_inst_queue_writes            0                       # Number of vector instruction queue writes
system.switch_cpus.itb.data_accesses                0                       # DTB accesses
system.switch_cpus.itb.data_acv                     0                       # DTB access violations
system.switch_cpus.itb.data_hits                    0                       # DTB hits
system.switch_cpus.itb.data_misses                  0                       # DTB misses
system.switch_cpus.itb.fetch_accesses        20485254                       # ITB accesses
system.switch_cpus.itb.fetch_acv                    0                       # ITB acv
system.switch_cpus.itb.fetch_hits            20474991                       # ITB hits
system.switch_cpus.itb.fetch_misses             10263                       # ITB misses
system.switch_cpus.itb.pwrStateResidencyTicks::UNDEFINED 2122194358500                       # Cumulative time (in ticks) in various power states
system.switch_cpus.itb.read_accesses                0                       # DTB read accesses
system.switch_cpus.itb.read_acv                     0                       # DTB read access violations
system.switch_cpus.itb.read_hits                    0                       # DTB read hits
system.switch_cpus.itb.read_misses                  0                       # DTB read misses
system.switch_cpus.itb.write_accesses               0                       # DTB write accesses
system.switch_cpus.itb.write_acv                    0                       # DTB write access violations
system.switch_cpus.itb.write_hits                   0                       # DTB write hits
system.switch_cpus.itb.write_misses                 0                       # DTB write misses
system.switch_cpus.memDep0.conflictingLoads       847809                       # Number of conflicting loads.
system.switch_cpus.memDep0.conflictingStores       422778                       # Number of conflicting stores.
system.switch_cpus.memDep0.insertedLoads     32753022                       # Number of loads inserted to the mem dependence unit.
system.switch_cpus.memDep0.insertedStores     17036813                       # Number of stores inserted to the mem dependence unit.
system.switch_cpus.misc_regfile_reads           13886                       # number of misc regfile reads
system.switch_cpus.misc_regfile_writes           6943                       # number of misc regfile writes
system.switch_cpus.numCycles                 68690797                       # number of cpu cycles simulated
system.switch_cpus.numWorkItemsCompleted            0                       # number of work items this cpu completed
system.switch_cpus.numWorkItemsStarted              0                       # number of work items this cpu started
system.switch_cpus.pwrStateResidencyTicks::OFF  34345408500                       # Cumulative time (in ticks) in various power states
system.switch_cpus.rename.BlockCycles         4273600                       # Number of cycles rename is blocking
system.switch_cpus.rename.CommittedMaps      73241663                       # Number of HB maps that are committed
system.switch_cpus.rename.IQFullEvents          50659                       # Number of times rename has blocked due to IQ full
system.switch_cpus.rename.IdleCycles         33823860                       # Number of cycles rename is idle
system.switch_cpus.rename.LQFullEvents         254236                       # Number of times rename has blocked due to LQ full
system.switch_cpus.rename.ROBFullEvents          1141                       # Number of times rename has blocked due to ROB full
system.switch_cpus.rename.RenameLookups     203179139                       # Number of register rename lookups that rename has made
system.switch_cpus.rename.RenamedInsts      149626269                       # Number of instructions processed by rename
system.switch_cpus.rename.RenamedOperands    108696661                       # Number of destination operands rename has renamed
system.switch_cpus.rename.RunCycles          26155451                       # Number of cycles rename is running
system.switch_cpus.rename.SQFullEvents         902949                       # Number of times rename has blocked due to SQ full
system.switch_cpus.rename.SquashCycles        1765759                       # Number of cycles rename is squashing
system.switch_cpus.rename.UnblockCycles       1331962                       # Number of cycles rename is unblocking
system.switch_cpus.rename.UndoneMaps         35454975                       # Number of HB maps that are undone due to squashing
system.switch_cpus.rename.fp_rename_lookups       119979                       # Number of floating rename lookups
system.switch_cpus.rename.int_rename_lookups    203052217                       # Number of integer rename lookups
system.switch_cpus.rename.serializeStallCycles      1070694                       # count of cycles rename stalled for serializing inst
system.switch_cpus.rename.serializingInsts        31364                       # count of serializing insts renamed
system.switch_cpus.rename.skidInsts           1131146                       # count of insts added to the skid buffer
system.switch_cpus.rename.tempSerializingInsts            0                       # count of temporary serializing insts renamed
system.switch_cpus.rob.rob_reads            196845605                       # The number of ROB reads
system.switch_cpus.rob.rob_writes           286156310                       # The number of ROB writes
system.switch_cpus.timesIdled                   43483                       # Number of times that the entire CPU went into an idle state and unscheduled itself
system.tol2bus.pkt_count_system.cpu.icache.mem_side::system.l2.cpu_side      2330907                       # Packet count per connected master and slave (bytes)
system.tol2bus.pkt_count_system.cpu.dcache.mem_side::system.l2.cpu_side       983272                       # Packet count per connected master and slave (bytes)
system.tol2bus.pkt_count::total               3314179                       # Packet count per connected master and slave (bytes)
system.tol2bus.pkt_size_system.cpu.icache.mem_side::system.l2.cpu_side     99441088                       # Cumulative packet size per connected master and slave (bytes)
system.tol2bus.pkt_size_system.cpu.dcache.mem_side::system.l2.cpu_side     37743936                       # Cumulative packet size per connected master and slave (bytes)
system.tol2bus.pkt_size::total              137185024                       # Cumulative packet size per connected master and slave (bytes)
system.tol2bus.pwrStateResidencyTicks::UNDEFINED 2122194358500                       # Cumulative time (in ticks) in various power states
system.tol2bus.reqLayer0.occupancy         2147780000                       # Layer occupancy (ticks)
system.tol2bus.reqLayer0.utilization              6.3                       # Layer utilization (%)
system.tol2bus.respLayer0.occupancy        1166102707                       # Layer occupancy (ticks)
system.tol2bus.respLayer0.utilization             3.4                       # Layer utilization (%)
system.tol2bus.respLayer1.occupancy         487112983                       # Layer occupancy (ticks)
system.tol2bus.respLayer1.utilization             1.4                       # Layer utilization (%)
system.tol2bus.snoopTraffic                         0                       # Total snoop traffic (bytes)
system.tol2bus.snoop_fanout::samples          1105068                       # Request fanout histogram
system.tol2bus.snoop_fanout::mean                   0                       # Request fanout histogram
system.tol2bus.snoop_fanout::stdev                  0                       # Request fanout histogram
system.tol2bus.snoop_fanout::underflows             0      0.00%      0.00% # Request fanout histogram
system.tol2bus.snoop_fanout::0                1105068    100.00%    100.00% # Request fanout histogram
system.tol2bus.snoop_fanout::1                      0      0.00%    100.00% # Request fanout histogram
system.tol2bus.snoop_fanout::2                      0      0.00%    100.00% # Request fanout histogram
system.tol2bus.snoop_fanout::overflows              0      0.00%    100.00% # Request fanout histogram
system.tol2bus.snoop_fanout::min_value              0                       # Request fanout histogram
system.tol2bus.snoop_fanout::max_value              0                       # Request fanout histogram
system.tol2bus.snoop_fanout::total            1105068                       # Request fanout histogram
system.tol2bus.snoop_filter.hit_multi_requests            0                       # Number of requests hitting in the snoop filter with multiple (>1) holders of the requested data.
system.tol2bus.snoop_filter.hit_multi_snoops            0                       # Number of snoops hitting in the snoop filter with multiple (>1) holders of the requested data.
system.tol2bus.snoop_filter.hit_single_requests      1104043                       # Number of requests hitting in the snoop filter with a single holder of the requested data.
system.tol2bus.snoop_filter.hit_single_snoops            0                       # Number of snoops hitting in the snoop filter with a single holder of the requested data.
system.tol2bus.snoop_filter.tot_requests      2209111                       # Total number of requests made to the snoop filter.
system.tol2bus.snoop_filter.tot_snoops              0                       # Total number of snoops made to the snoop filter.
system.tol2bus.snoops                               0                       # Total snoops (count)
system.tol2bus.trans_dist::ReadResp            893414                       # Transaction distribution
system.tol2bus.trans_dist::WritebackDirty       266601                       # Transaction distribution
system.tol2bus.trans_dist::WritebackClean       776627                       # Transaction distribution
system.tol2bus.trans_dist::CleanEvict           60815                       # Transaction distribution
system.tol2bus.trans_dist::ReadExReq           206874                       # Transaction distribution
system.tol2bus.trans_dist::ReadExResp          206874                       # Transaction distribution
system.tol2bus.trans_dist::ReadCleanReq        777140                       # Transaction distribution
system.tol2bus.trans_dist::ReadSharedReq       116274                       # Transaction distribution
system.tol2bus.trans_dist::InvalidateReq         4780                       # Transaction distribution
system.tol2bus.trans_dist::InvalidateResp         4780                       # Transaction distribution
system.voltage_domain.voltage                       1                       # Voltage in Volts

---------- End Simulation Statistics   ----------
