
******************************directory****************************
spec_dir: /home/cuihongwei/experiment/mcpat-gem5-master/spec2006/benchspec/CPU2006
run_dir:  /home/cuihongwei/experiment/mcpat-gem5-master/spec2006/benchspec/CPU2006/450.soplex/run/run_base_ref_amd64.0001
gem5_dir: /home/cuihongwei/experiment/experiment-gem5/raw-gem5
gem5_output_dir: /home/cuihongwei/experiment/experiment-gem5/raw-gem5/output/450.soplex/alpha-OLD-450.soplex-input1-190330-232204
benchmark_output:/home/cuihongwei/experiment/experiment-gem5/raw-gem5/output/450.soplex/alpha-OLD-450.soplex-input1-190330-232204
checkpoint_dir:/home/cuihongwei/experiment/experiment-gem5/pubs-gem5/output/alpha-450.soplex-checkpoint-input1

******************************benchmark****************************
target:     450.soplex
executable: soplex
args:       -s1 -e -m45000 pds-50.mps
input:      
output:     /home/cuihongwei/experiment/experiment-gem5/raw-gem5/output/450.soplex/alpha-OLD-450.soplex-input1-190330-232204/pds-50.mps.out
errout:     /home/cuihongwei/experiment/experiment-gem5/raw-gem5/output/450.soplex/alpha-OLD-450.soplex-input1-190330-232204/pds-50.mps.stderr

******************************gem5****************************
arch:       /home/cuihongwei/experiment/experiment-gem5/raw-gem5/build/ALPHA/gem5.opt
config:     /home/cuihongwei/experiment/experiment-gem5/raw-gem5/configs/example/se.py
args:       --num-cpus=1 --mem-size=8GB --caches --l1d_size=32kB --l1d_assoc=8 --l1i_size=32kB --l1i_assoc=8 --l2cache --l2_size=2MB --l2_assoc=16 --at-instruction --checkpoint-restore=5000000000 --maxinsts=100000000 --cpu-type=DerivO3CPU
debugFlag:  --debug-flags=ShowRunning

******************************simulation****************************
start time:(year-mon-day hour-minute-second)19-03-30 23-22-04
gem5 Simulator System.  http://gem5.org
gem5 is copyrighted software; use the --copyright option for details.

gem5 compiled Mar 30 2019 20:24:53
gem5 started Mar 30 2019 23:22:04
gem5 executing on mprc-R730, pid 14385
command line: /home/cuihongwei/experiment/experiment-gem5/raw-gem5/build/ALPHA/gem5.opt --outdir=/home/cuihongwei/experiment/experiment-gem5/raw-gem5/output/450.soplex/alpha-OLD-450.soplex-input1-190330-232204 --debug-flags=ShowRunning /home/cuihongwei/experiment/experiment-gem5/raw-gem5/configs/example/se.py --num-cpus=1 --mem-size=8GB --caches --l1d_size=32kB --l1d_assoc=8 --l1i_size=32kB --l1i_assoc=8 --l2cache --l2_size=2MB --l2_assoc=16 --at-instruction --checkpoint-restore=5000000000 --maxinsts=100000000 --cpu-type=DerivO3CPU --checkpoint-dir=/home/cuihongwei/experiment/experiment-gem5/pubs-gem5/output/alpha-450.soplex-checkpoint-input1 --cmd=/home/cuihongwei/experiment/mcpat-gem5-master/spec2006/benchspec/CPU2006/450.soplex/run/build_peak_alpha.0001/soplex '--options=-s1 -e -m45000 pds-50.mps' --output=/home/cuihongwei/experiment/experiment-gem5/raw-gem5/output/450.soplex/alpha-OLD-450.soplex-input1-190330-232204/pds-50.mps.out --input= --errout=/home/cuihongwei/experiment/experiment-gem5/raw-gem5/output/450.soplex/alpha-OLD-450.soplex-input1-190330-232204/pds-50.mps.stderr

Global frequency set at 1000000000000 ticks per second
Switch at curTick count:10000
Switched CPUS @ tick 4065191771250
switching cpus
**** REAL SIMULATION ****
4065191772000: system.switch_cpus: Raw Gem5 Running in Cycle:               0, Inst:               0
4065242289000: system.switch_cpus: Raw Gem5 Running in Cycle:          100000, Inst:           15041
4065292289000: system.switch_cpus: Raw Gem5 Running in Cycle:          200000, Inst:           30268
4065342289000: system.switch_cpus: Raw Gem5 Running in Cycle:          300000, Inst:           45551
4065392289000: system.switch_cpus: Raw Gem5 Running in Cycle:          400000, Inst:           60587
4065442289000: system.switch_cpus: Raw Gem5 Running in Cycle:          500000, Inst:           75754
4065492289000: system.switch_cpus: Raw Gem5 Running in Cycle:          600000, Inst:           91024
4065542289000: system.switch_cpus: Raw Gem5 Running in Cycle:          700000, Inst:          106221
4065592289000: system.switch_cpus: Raw Gem5 Running in Cycle:          800000, Inst:          121256
4065642289000: system.switch_cpus: Raw Gem5 Running in Cycle:          900000, Inst:          136525
4065692289000: system.switch_cpus: Raw Gem5 Running in Cycle:         1000000, Inst:          151480
4065742289000: system.switch_cpus: Raw Gem5 Running in Cycle:         1100000, Inst:          166719
4065792289000: system.switch_cpus: Raw Gem5 Running in Cycle:         1200000, Inst:          182014
4065842289000: system.switch_cpus: Raw Gem5 Running in Cycle:         1300000, Inst:          197050
4065893357500: system.switch_cpus: Raw Gem5 Running in Cycle:         1400000, Inst:          212648
4065943357500: system.switch_cpus: Raw Gem5 Running in Cycle:         1500000, Inst:          226377
4065993357500: system.switch_cpus: Raw Gem5 Running in Cycle:         1600000, Inst:          237065
4066043357500: system.switch_cpus: Raw Gem5 Running in Cycle:         1700000, Inst:          247732
4066093357500: system.switch_cpus: Raw Gem5 Running in Cycle:         1800000, Inst:          258430
4066143357500: system.switch_cpus: Raw Gem5 Running in Cycle:         1900000, Inst:          269097
4066193357500: system.switch_cpus: Raw Gem5 Running in Cycle:         2000000, Inst:          279785
4066243357500: system.switch_cpus: Raw Gem5 Running in Cycle:         2100000, Inst:          290441
4066293357500: system.switch_cpus: Raw Gem5 Running in Cycle:         2200000, Inst:          301161
4066343357500: system.switch_cpus: Raw Gem5 Running in Cycle:         2300000, Inst:          311849
4066393357500: system.switch_cpus: Raw Gem5 Running in Cycle:         2400000, Inst:          322537
4066443357500: system.switch_cpus: Raw Gem5 Running in Cycle:         2500000, Inst:          333225
4066493357500: system.switch_cpus: Raw Gem5 Running in Cycle:         2600000, Inst:          343881
4066543357500: system.switch_cpus: Raw Gem5 Running in Cycle:         2700000, Inst:          354601
4066593357500: system.switch_cpus: Raw Gem5 Running in Cycle:         2800000, Inst:          365289
4066643357500: system.switch_cpus: Raw Gem5 Running in Cycle:         2900000, Inst:          375956
4066693357500: system.switch_cpus: Raw Gem5 Running in Cycle:         3000000, Inst:          386665
4066743357500: system.switch_cpus: Raw Gem5 Running in Cycle:         3100000, Inst:          397321
4066793357500: system.switch_cpus: Raw Gem5 Running in Cycle:         3200000, Inst:          408020
4066843357500: system.switch_cpus: Raw Gem5 Running in Cycle:         3300000, Inst:          418665
4066893357500: system.switch_cpus: Raw Gem5 Running in Cycle:         3400000, Inst:          429385
4066943357500: system.switch_cpus: Raw Gem5 Running in Cycle:         3500000, Inst:          440073
4066993357500: system.switch_cpus: Raw Gem5 Running in Cycle:         3600000, Inst:          463067
4067043357500: system.switch_cpus: Raw Gem5 Running in Cycle:         3700000, Inst:          491529
4067098000500: system.switch_cpus: Raw Gem5 Running in Cycle:         3800000, Inst:          519216
4067153662500: system.switch_cpus: Raw Gem5 Running in Cycle:         3900000, Inst:          557754
4067203662500: system.switch_cpus: Raw Gem5 Running in Cycle:         4000000, Inst:          589257
4067253825500: system.switch_cpus: Raw Gem5 Running in Cycle:         4100000, Inst:          624276
4067303825500: system.switch_cpus: Raw Gem5 Running in Cycle:         4200000, Inst:          669020
4067353825500: system.switch_cpus: Raw Gem5 Running in Cycle:         4300000, Inst:          698003
4067403825500: system.switch_cpus: Raw Gem5 Running in Cycle:         4400000, Inst:          733299
4067453825500: system.switch_cpus: Raw Gem5 Running in Cycle:         4500000, Inst:          764930
4067503825500: system.switch_cpus: Raw Gem5 Running in Cycle:         4600000, Inst:          781636
4067553825500: system.switch_cpus: Raw Gem5 Running in Cycle:         4700000, Inst:          798141
4067603825500: system.switch_cpus: Raw Gem5 Running in Cycle:         4800000, Inst:          814453
4067653825500: system.switch_cpus: Raw Gem5 Running in Cycle:         4900000, Inst:          831062
4067703825500: system.switch_cpus: Raw Gem5 Running in Cycle:         5000000, Inst:          847468
4067753825500: system.switch_cpus: Raw Gem5 Running in Cycle:         5100000, Inst:          863577
4067803825500: system.switch_cpus: Raw Gem5 Running in Cycle:         5200000, Inst:          880040
4067853825500: system.switch_cpus: Raw Gem5 Running in Cycle:         5300000, Inst:          896286
4067903825500: system.switch_cpus: Raw Gem5 Running in Cycle:         5400000, Inst:          912787
4067953825500: system.switch_cpus: Raw Gem5 Running in Cycle:         5500000, Inst:          929105
4068003825500: system.switch_cpus: Raw Gem5 Running in Cycle:         5600000, Inst:          945513
4068053825500: system.switch_cpus: Raw Gem5 Running in Cycle:         5700000, Inst:          961822
4068103825500: system.switch_cpus: Raw Gem5 Running in Cycle:         5800000, Inst:          978518
4068153825500: system.switch_cpus: Raw Gem5 Running in Cycle:         5900000, Inst:          995060
4068203825500: system.switch_cpus: Raw Gem5 Running in Cycle:         6000000, Inst:         1011339
4068253825500: system.switch_cpus: Raw Gem5 Running in Cycle:         6100000, Inst:         1027940
4068303825500: system.switch_cpus: Raw Gem5 Running in Cycle:         6200000, Inst:         1044388
4068353825500: system.switch_cpus: Raw Gem5 Running in Cycle:         6300000, Inst:         1060901
4068403825500: system.switch_cpus: Raw Gem5 Running in Cycle:         6400000, Inst:         1083243
4068453825500: system.switch_cpus: Raw Gem5 Running in Cycle:         6500000, Inst:         1111704
4068503825500: system.switch_cpus: Raw Gem5 Running in Cycle:         6600000, Inst:         1140184
4068553825500: system.switch_cpus: Raw Gem5 Running in Cycle:         6700000, Inst:         1168643
4068603825500: system.switch_cpus: Raw Gem5 Running in Cycle:         6800000, Inst:         1197119
4068653825500: system.switch_cpus: Raw Gem5 Running in Cycle:         6900000, Inst:         1230436
4068703825500: system.switch_cpus: Raw Gem5 Running in Cycle:         7000000, Inst:         1263350
4068753825500: system.switch_cpus: Raw Gem5 Running in Cycle:         7100000, Inst:         1295457
4068803825500: system.switch_cpus: Raw Gem5 Running in Cycle:         7200000, Inst:         1326981
4068853825500: system.switch_cpus: Raw Gem5 Running in Cycle:         7300000, Inst:         1358702
4068903825500: system.switch_cpus: Raw Gem5 Running in Cycle:         7400000, Inst:         1391178
4068953825500: system.switch_cpus: Raw Gem5 Running in Cycle:         7500000, Inst:         1422731
4069003825500: system.switch_cpus: Raw Gem5 Running in Cycle:         7600000, Inst:         1454239
4069053825500: system.switch_cpus: Raw Gem5 Running in Cycle:         7700000, Inst:         1483451
4069103825500: system.switch_cpus: Raw Gem5 Running in Cycle:         7800000, Inst:         1511917
4069153825500: system.switch_cpus: Raw Gem5 Running in Cycle:         7900000, Inst:         1540390
4069203825500: system.switch_cpus: Raw Gem5 Running in Cycle:         8000000, Inst:         1576762
4069253825500: system.switch_cpus: Raw Gem5 Running in Cycle:         8100000, Inst:         1608525
4069303825500: system.switch_cpus: Raw Gem5 Running in Cycle:         8200000, Inst:         1640215
4069353825500: system.switch_cpus: Raw Gem5 Running in Cycle:         8300000, Inst:         1671971
4069403825500: system.switch_cpus: Raw Gem5 Running in Cycle:         8400000, Inst:         1703385
4069453825500: system.switch_cpus: Raw Gem5 Running in Cycle:         8500000, Inst:         1735240
4069503825500: system.switch_cpus: Raw Gem5 Running in Cycle:         8600000, Inst:         1767313
4069553825500: system.switch_cpus: Raw Gem5 Running in Cycle:         8700000, Inst:         1799506
4069603825500: system.switch_cpus: Raw Gem5 Running in Cycle:         8800000, Inst:         1826572
4069653825500: system.switch_cpus: Raw Gem5 Running in Cycle:         8900000, Inst:         1850895
4069703825500: system.switch_cpus: Raw Gem5 Running in Cycle:         9000000, Inst:         1875977
4069753825500: system.switch_cpus: Raw Gem5 Running in Cycle:         9100000, Inst:         1901537
4069803825500: system.switch_cpus: Raw Gem5 Running in Cycle:         9200000, Inst:         1928619
4069853825500: system.switch_cpus: Raw Gem5 Running in Cycle:         9300000, Inst:         1957086
4069903825500: system.switch_cpus: Raw Gem5 Running in Cycle:         9400000, Inst:         1985547
4069953825500: system.switch_cpus: Raw Gem5 Running in Cycle:         9500000, Inst:         2014027
4070003825500: system.switch_cpus: Raw Gem5 Running in Cycle:         9600000, Inst:         2042486
4070053825500: system.switch_cpus: Raw Gem5 Running in Cycle:         9700000, Inst:         2079644
4070103825500: system.switch_cpus: Raw Gem5 Running in Cycle:         9800000, Inst:         2111657
4070153825500: system.switch_cpus: Raw Gem5 Running in Cycle:         9900000, Inst:         2143031
4070203825500: system.switch_cpus: Raw Gem5 Running in Cycle:        10000000, Inst:         2175323
4070253825500: system.switch_cpus: Raw Gem5 Running in Cycle:        10100000, Inst:         2207008
4070303825500: system.switch_cpus: Raw Gem5 Running in Cycle:        10200000, Inst:         2239024
4070353825500: system.switch_cpus: Raw Gem5 Running in Cycle:        10300000, Inst:         2270953
4070403825500: system.switch_cpus: Raw Gem5 Running in Cycle:        10400000, Inst:         2302847
4070453825500: system.switch_cpus: Raw Gem5 Running in Cycle:        10500000, Inst:         2334530
4070503825500: system.switch_cpus: Raw Gem5 Running in Cycle:        10600000, Inst:         2365363
4070553825500: system.switch_cpus: Raw Gem5 Running in Cycle:        10700000, Inst:         2393829
4070603825500: system.switch_cpus: Raw Gem5 Running in Cycle:        10800000, Inst:         2422302
4070653825500: system.switch_cpus: Raw Gem5 Running in Cycle:        10900000, Inst:         2450768
4070703825500: system.switch_cpus: Raw Gem5 Running in Cycle:        11000000, Inst:         2486505
4070753825500: system.switch_cpus: Raw Gem5 Running in Cycle:        11100000, Inst:         2518190
4070803825500: system.switch_cpus: Raw Gem5 Running in Cycle:        11200000, Inst:         2550120
4070853825500: system.switch_cpus: Raw Gem5 Running in Cycle:        11300000, Inst:         2582235
4070903825500: system.switch_cpus: Raw Gem5 Running in Cycle:        11400000, Inst:         2613452
4070953825500: system.switch_cpus: Raw Gem5 Running in Cycle:        11500000, Inst:         2645454
4071003825500: system.switch_cpus: Raw Gem5 Running in Cycle:        11600000, Inst:         2676885
4071053825500: system.switch_cpus: Raw Gem5 Running in Cycle:        11700000, Inst:         2707704
4071103825500: system.switch_cpus: Raw Gem5 Running in Cycle:        11800000, Inst:         2739793
4071153825500: system.switch_cpus: Raw Gem5 Running in Cycle:        11900000, Inst:         2772096
4071203825500: system.switch_cpus: Raw Gem5 Running in Cycle:        12000000, Inst:         2799145
4071253825500: system.switch_cpus: Raw Gem5 Running in Cycle:        12100000, Inst:         2826270
4071303825500: system.switch_cpus: Raw Gem5 Running in Cycle:        12200000, Inst:         2848227
4071353825500: system.switch_cpus: Raw Gem5 Running in Cycle:        12300000, Inst:         2864635
4071403825500: system.switch_cpus: Raw Gem5 Running in Cycle:        12400000, Inst:         2880905
4071453825500: system.switch_cpus: Raw Gem5 Running in Cycle:        12500000, Inst:         2897499
4071503825500: system.switch_cpus: Raw Gem5 Running in Cycle:        12600000, Inst:         2913854
4071553825500: system.switch_cpus: Raw Gem5 Running in Cycle:        12700000, Inst:         2930505
4071603825500: system.switch_cpus: Raw Gem5 Running in Cycle:        12800000, Inst:         2947705
4071653825500: system.switch_cpus: Raw Gem5 Running in Cycle:        12900000, Inst:         2965515
4071703825500: system.switch_cpus: Raw Gem5 Running in Cycle:        13000000, Inst:         2983089
4071753825500: system.switch_cpus: Raw Gem5 Running in Cycle:        13100000, Inst:         3000493
4071803825500: system.switch_cpus: Raw Gem5 Running in Cycle:        13200000, Inst:         3016760
4071853825500: system.switch_cpus: Raw Gem5 Running in Cycle:        13300000, Inst:         3032810
4071903825500: system.switch_cpus: Raw Gem5 Running in Cycle:        13400000, Inst:         3049166
4071953825500: system.switch_cpus: Raw Gem5 Running in Cycle:        13500000, Inst:         3065082
4072003825500: system.switch_cpus: Raw Gem5 Running in Cycle:        13600000, Inst:         3081408
4072053825500: system.switch_cpus: Raw Gem5 Running in Cycle:        13700000, Inst:         3097408
4072103825500: system.switch_cpus: Raw Gem5 Running in Cycle:        13800000, Inst:         3113774
4072153825500: system.switch_cpus: Raw Gem5 Running in Cycle:        13900000, Inst:         3130232
4072203825500: system.switch_cpus: Raw Gem5 Running in Cycle:        14000000, Inst:         3146537
4072253825500: system.switch_cpus: Raw Gem5 Running in Cycle:        14100000, Inst:         3162983
4072303825500: system.switch_cpus: Raw Gem5 Running in Cycle:        14200000, Inst:         3179659
4072353825500: system.switch_cpus: Raw Gem5 Running in Cycle:        14300000, Inst:         3207929
4072403825500: system.switch_cpus: Raw Gem5 Running in Cycle:        14400000, Inst:         3236409
4072453825500: system.switch_cpus: Raw Gem5 Running in Cycle:        14500000, Inst:         3264868
4072503825500: system.switch_cpus: Raw Gem5 Running in Cycle:        14600000, Inst:         3293337
4072553825500: system.switch_cpus: Raw Gem5 Running in Cycle:        14700000, Inst:         3321805
4072603825500: system.switch_cpus: Raw Gem5 Running in Cycle:        14800000, Inst:         3350265
4072653825500: system.switch_cpus: Raw Gem5 Running in Cycle:        14900000, Inst:         3378745
4072703825500: system.switch_cpus: Raw Gem5 Running in Cycle:        15000000, Inst:         3407214
4072753825500: system.switch_cpus: Raw Gem5 Running in Cycle:        15100000, Inst:         3435680
4072803825500: system.switch_cpus: Raw Gem5 Running in Cycle:        15200000, Inst:         3474875
4072853825500: system.switch_cpus: Raw Gem5 Running in Cycle:        15300000, Inst:         3506131
4072903825500: system.switch_cpus: Raw Gem5 Running in Cycle:        15400000, Inst:         3537537
4072953825500: system.switch_cpus: Raw Gem5 Running in Cycle:        15500000, Inst:         3569798
4073003825500: system.switch_cpus: Raw Gem5 Running in Cycle:        15600000, Inst:         3601843
4073053825500: system.switch_cpus: Raw Gem5 Running in Cycle:        15700000, Inst:         3633220
4073103825500: system.switch_cpus: Raw Gem5 Running in Cycle:        15800000, Inst:         3664495
4073153825500: system.switch_cpus: Raw Gem5 Running in Cycle:        15900000, Inst:         3696659
4073203825500: system.switch_cpus: Raw Gem5 Running in Cycle:        16000000, Inst:         3728014
4073253825500: system.switch_cpus: Raw Gem5 Running in Cycle:        16100000, Inst:         3760527
4073303825500: system.switch_cpus: Raw Gem5 Running in Cycle:        16200000, Inst:         3792865
4073353825500: system.switch_cpus: Raw Gem5 Running in Cycle:        16300000, Inst:         3824923
4073403825500: system.switch_cpus: Raw Gem5 Running in Cycle:        16400000, Inst:         3857936
4073453825500: system.switch_cpus: Raw Gem5 Running in Cycle:        16500000, Inst:         3890069
4073503825500: system.switch_cpus: Raw Gem5 Running in Cycle:        16600000, Inst:         3923943
4073553825500: system.switch_cpus: Raw Gem5 Running in Cycle:        16700000, Inst:         3959569
4073603825500: system.switch_cpus: Raw Gem5 Running in Cycle:        16800000, Inst:         3994641
4073653825500: system.switch_cpus: Raw Gem5 Running in Cycle:        16900000, Inst:         4029828
4073703825500: system.switch_cpus: Raw Gem5 Running in Cycle:        17000000, Inst:         4064783
4073753825500: system.switch_cpus: Raw Gem5 Running in Cycle:        17100000, Inst:         4100231
4073803825500: system.switch_cpus: Raw Gem5 Running in Cycle:        17200000, Inst:         4135676
4073853825500: system.switch_cpus: Raw Gem5 Running in Cycle:        17300000, Inst:         4159894
4073903825500: system.switch_cpus: Raw Gem5 Running in Cycle:        17400000, Inst:         4176747
4073953825500: system.switch_cpus: Raw Gem5 Running in Cycle:        17500000, Inst:         4193467
4074003825500: system.switch_cpus: Raw Gem5 Running in Cycle:        17600000, Inst:         4210296
4074053825500: system.switch_cpus: Raw Gem5 Running in Cycle:        17700000, Inst:         4226815
4074103825500: system.switch_cpus: Raw Gem5 Running in Cycle:        17800000, Inst:         4243923
4074153825500: system.switch_cpus: Raw Gem5 Running in Cycle:        17900000, Inst:         4270954
4074203825500: system.switch_cpus: Raw Gem5 Running in Cycle:        18000000, Inst:         4298114
4074253825500: system.switch_cpus: Raw Gem5 Running in Cycle:        18100000, Inst:         4326633
4074303825500: system.switch_cpus: Raw Gem5 Running in Cycle:        18200000, Inst:         4355095
4074353825500: system.switch_cpus: Raw Gem5 Running in Cycle:        18300000, Inst:         4383575
4074403825500: system.switch_cpus: Raw Gem5 Running in Cycle:        18400000, Inst:         4412041
4074453825500: system.switch_cpus: Raw Gem5 Running in Cycle:        18500000, Inst:         4440503
4074503825500: system.switch_cpus: Raw Gem5 Running in Cycle:        18600000, Inst:         4468979
4074553825500: system.switch_cpus: Raw Gem5 Running in Cycle:        18700000, Inst:         4497442
4074603825500: system.switch_cpus: Raw Gem5 Running in Cycle:        18800000, Inst:         4525911
4074653825500: system.switch_cpus: Raw Gem5 Running in Cycle:        18900000, Inst:         4554377
4074703825500: system.switch_cpus: Raw Gem5 Running in Cycle:        19000000, Inst:         4582839
4074753825500: system.switch_cpus: Raw Gem5 Running in Cycle:        19100000, Inst:         4624412
4074803825500: system.switch_cpus: Raw Gem5 Running in Cycle:        19200000, Inst:         4661290
4074853825500: system.switch_cpus: Raw Gem5 Running in Cycle:        19300000, Inst:         4692915
4074903825500: system.switch_cpus: Raw Gem5 Running in Cycle:        19400000, Inst:         4724911
4074953825500: system.switch_cpus: Raw Gem5 Running in Cycle:        19500000, Inst:         4756853
4075003825500: system.switch_cpus: Raw Gem5 Running in Cycle:        19600000, Inst:         4789222
4075053825500: system.switch_cpus: Raw Gem5 Running in Cycle:        19700000, Inst:         4821192
4075103825500: system.switch_cpus: Raw Gem5 Running in Cycle:        19800000, Inst:         4852657
4075153825500: system.switch_cpus: Raw Gem5 Running in Cycle:        19900000, Inst:         4884526
4075203825500: system.switch_cpus: Raw Gem5 Running in Cycle:        20000000, Inst:         4915757
4075253825500: system.switch_cpus: Raw Gem5 Running in Cycle:        20100000, Inst:         4947193
4075303825500: system.switch_cpus: Raw Gem5 Running in Cycle:        20200000, Inst:         4978339
4075353825500: system.switch_cpus: Raw Gem5 Running in Cycle:        20300000, Inst:         5010978
4075403825500: system.switch_cpus: Raw Gem5 Running in Cycle:        20400000, Inst:         5042726
4075453825500: system.switch_cpus: Raw Gem5 Running in Cycle:        20500000, Inst:         5075950
4075503825500: system.switch_cpus: Raw Gem5 Running in Cycle:        20600000, Inst:         5111093
4075553825500: system.switch_cpus: Raw Gem5 Running in Cycle:        20700000, Inst:         5146135
4075603825500: system.switch_cpus: Raw Gem5 Running in Cycle:        20800000, Inst:         5181574
4075653825500: system.switch_cpus: Raw Gem5 Running in Cycle:        20900000, Inst:         5216892
4075703825500: system.switch_cpus: Raw Gem5 Running in Cycle:        21000000, Inst:         5252018
4075753825500: system.switch_cpus: Raw Gem5 Running in Cycle:        21100000, Inst:         5287229
4075803825500: system.switch_cpus: Raw Gem5 Running in Cycle:        21200000, Inst:         5322284
4075853825500: system.switch_cpus: Raw Gem5 Running in Cycle:        21300000, Inst:         5357235
4075903825500: system.switch_cpus: Raw Gem5 Running in Cycle:        21400000, Inst:         5391073
4075953825500: system.switch_cpus: Raw Gem5 Running in Cycle:        21500000, Inst:         5425380
4076003825500: system.switch_cpus: Raw Gem5 Running in Cycle:        21600000, Inst:         5453991
4076053825500: system.switch_cpus: Raw Gem5 Running in Cycle:        21700000, Inst:         5478559
4076103825500: system.switch_cpus: Raw Gem5 Running in Cycle:        21800000, Inst:         5503012
4076153825500: system.switch_cpus: Raw Gem5 Running in Cycle:        21900000, Inst:         5527842
4076203825500: system.switch_cpus: Raw Gem5 Running in Cycle:        22000000, Inst:         5552994
4076253825500: system.switch_cpus: Raw Gem5 Running in Cycle:        22100000, Inst:         5577960
4076303825500: system.switch_cpus: Raw Gem5 Running in Cycle:        22200000, Inst:         5602760
4076353825500: system.switch_cpus: Raw Gem5 Running in Cycle:        22300000, Inst:         5627441
4076403825500: system.switch_cpus: Raw Gem5 Running in Cycle:        22400000, Inst:         5655426
4076453825500: system.switch_cpus: Raw Gem5 Running in Cycle:        22500000, Inst:         5683895
4076503825500: system.switch_cpus: Raw Gem5 Running in Cycle:        22600000, Inst:         5712364
4076553825500: system.switch_cpus: Raw Gem5 Running in Cycle:        22700000, Inst:         5740830
4076603825500: system.switch_cpus: Raw Gem5 Running in Cycle:        22800000, Inst:         5769303
4076653825500: system.switch_cpus: Raw Gem5 Running in Cycle:        22900000, Inst:         5797772
4076703825500: system.switch_cpus: Raw Gem5 Running in Cycle:        23000000, Inst:         5826238
4076753825500: system.switch_cpus: Raw Gem5 Running in Cycle:        23100000, Inst:         5854711
4076803825500: system.switch_cpus: Raw Gem5 Running in Cycle:        23200000, Inst:         5883177
4076853825500: system.switch_cpus: Raw Gem5 Running in Cycle:        23300000, Inst:         5911639
4076903825500: system.switch_cpus: Raw Gem5 Running in Cycle:        23400000, Inst:         5940115
4076953825500: system.switch_cpus: Raw Gem5 Running in Cycle:        23500000, Inst:         5968578
4077003825500: system.switch_cpus: Raw Gem5 Running in Cycle:        23600000, Inst:         5997047
4077053825500: system.switch_cpus: Raw Gem5 Running in Cycle:        23700000, Inst:         6030645
4077103825500: system.switch_cpus: Raw Gem5 Running in Cycle:        23800000, Inst:         6054798
4077153825500: system.switch_cpus: Raw Gem5 Running in Cycle:        23900000, Inst:         6078029
4077203825500: system.switch_cpus: Raw Gem5 Running in Cycle:        24000000, Inst:         6102172
4077253825500: system.switch_cpus: Raw Gem5 Running in Cycle:        24100000, Inst:         6125933
4077303825500: system.switch_cpus: Raw Gem5 Running in Cycle:        24200000, Inst:         6149825
4077353825500: system.switch_cpus: Raw Gem5 Running in Cycle:        24300000, Inst:         6173360
4077403825500: system.switch_cpus: Raw Gem5 Running in Cycle:        24400000, Inst:         6196695
4077453825500: system.switch_cpus: Raw Gem5 Running in Cycle:        24500000, Inst:         6219663
4077503825500: system.switch_cpus: Raw Gem5 Running in Cycle:        24600000, Inst:         6243147
4077553825500: system.switch_cpus: Raw Gem5 Running in Cycle:        24700000, Inst:         6266595
4077603825500: system.switch_cpus: Raw Gem5 Running in Cycle:        24800000, Inst:         6290231
4077653825500: system.switch_cpus: Raw Gem5 Running in Cycle:        24900000, Inst:         6313439
4077703825500: system.switch_cpus: Raw Gem5 Running in Cycle:        25000000, Inst:         6336572
4077753825500: system.switch_cpus: Raw Gem5 Running in Cycle:        25100000, Inst:         6359645
4077803825500: system.switch_cpus: Raw Gem5 Running in Cycle:        25200000, Inst:         6383319
4077853825500: system.switch_cpus: Raw Gem5 Running in Cycle:        25300000, Inst:         6406052
4077903825500: system.switch_cpus: Raw Gem5 Running in Cycle:        25400000, Inst:         6428799
4077953825500: system.switch_cpus: Raw Gem5 Running in Cycle:        25500000, Inst:         6451541
4078003825500: system.switch_cpus: Raw Gem5 Running in Cycle:        25600000, Inst:         6473880
4078053825500: system.switch_cpus: Raw Gem5 Running in Cycle:        25700000, Inst:         6495704
4078103825500: system.switch_cpus: Raw Gem5 Running in Cycle:        25800000, Inst:         6518063
4078153825500: system.switch_cpus: Raw Gem5 Running in Cycle:        25900000, Inst:         6540341
4078203825500: system.switch_cpus: Raw Gem5 Running in Cycle:        26000000, Inst:         6562344
4078253825500: system.switch_cpus: Raw Gem5 Running in Cycle:        26100000, Inst:         6584157
4078303825500: system.switch_cpus: Raw Gem5 Running in Cycle:        26200000, Inst:         6603817
4078353825500: system.switch_cpus: Raw Gem5 Running in Cycle:        26300000, Inst:         6621328
4078403825500: system.switch_cpus: Raw Gem5 Running in Cycle:        26400000, Inst:         6638561
4078453825500: system.switch_cpus: Raw Gem5 Running in Cycle:        26500000, Inst:         6655942
4078503825500: system.switch_cpus: Raw Gem5 Running in Cycle:        26600000, Inst:         6672871
4078553825500: system.switch_cpus: Raw Gem5 Running in Cycle:        26700000, Inst:         6689661
4078603825500: system.switch_cpus: Raw Gem5 Running in Cycle:        26800000, Inst:         6707302
4078653825500: system.switch_cpus: Raw Gem5 Running in Cycle:        26900000, Inst:         6724282
4078703825500: system.switch_cpus: Raw Gem5 Running in Cycle:        27000000, Inst:         6741445
4078753825500: system.switch_cpus: Raw Gem5 Running in Cycle:        27100000, Inst:         6757988
4078803825500: system.switch_cpus: Raw Gem5 Running in Cycle:        27200000, Inst:         6774252
4078853825500: system.switch_cpus: Raw Gem5 Running in Cycle:        27300000, Inst:         6790921
4078903825500: system.switch_cpus: Raw Gem5 Running in Cycle:        27400000, Inst:         6807930
4078953825500: system.switch_cpus: Raw Gem5 Running in Cycle:        27500000, Inst:         6829096
4079003825500: system.switch_cpus: Raw Gem5 Running in Cycle:        27600000, Inst:         6855562
4079053825500: system.switch_cpus: Raw Gem5 Running in Cycle:        27700000, Inst:         6883759
4079103825500: system.switch_cpus: Raw Gem5 Running in Cycle:        27800000, Inst:         6912221
4079153825500: system.switch_cpus: Raw Gem5 Running in Cycle:        27900000, Inst:         6940700
4079203825500: system.switch_cpus: Raw Gem5 Running in Cycle:        28000000, Inst:         6969160
4079253825500: system.switch_cpus: Raw Gem5 Running in Cycle:        28100000, Inst:         6997629
4079303825500: system.switch_cpus: Raw Gem5 Running in Cycle:        28200000, Inst:         7026096
4079353825500: system.switch_cpus: Raw Gem5 Running in Cycle:        28300000, Inst:         7054557
4079403825500: system.switch_cpus: Raw Gem5 Running in Cycle:        28400000, Inst:         7083037
4079453825500: system.switch_cpus: Raw Gem5 Running in Cycle:        28500000, Inst:         7111505
4079503825500: system.switch_cpus: Raw Gem5 Running in Cycle:        28600000, Inst:         7139967
4079553825500: system.switch_cpus: Raw Gem5 Running in Cycle:        28700000, Inst:         7168445
4079603825500: system.switch_cpus: Raw Gem5 Running in Cycle:        28800000, Inst:         7212190
4079653825500: system.switch_cpus: Raw Gem5 Running in Cycle:        28900000, Inst:         7249514
4079703825500: system.switch_cpus: Raw Gem5 Running in Cycle:        29000000, Inst:         7286140
4079753825500: system.switch_cpus: Raw Gem5 Running in Cycle:        29100000, Inst:         7330471
4079803825500: system.switch_cpus: Raw Gem5 Running in Cycle:        29200000, Inst:         7360100
4079853825500: system.switch_cpus: Raw Gem5 Running in Cycle:        29300000, Inst:         7386274
4079903825500: system.switch_cpus: Raw Gem5 Running in Cycle:        29400000, Inst:         7412666
4079953825500: system.switch_cpus: Raw Gem5 Running in Cycle:        29500000, Inst:         7438792
4080003825500: system.switch_cpus: Raw Gem5 Running in Cycle:        29600000, Inst:         7464955
4080053825500: system.switch_cpus: Raw Gem5 Running in Cycle:        29700000, Inst:         7491175
4080103825500: system.switch_cpus: Raw Gem5 Running in Cycle:        29800000, Inst:         7517312
4080153825500: system.switch_cpus: Raw Gem5 Running in Cycle:        29900000, Inst:         7542309
4080203825500: system.switch_cpus: Raw Gem5 Running in Cycle:        30000000, Inst:         7567520
4080253825500: system.switch_cpus: Raw Gem5 Running in Cycle:        30100000, Inst:         7593183
4080303825500: system.switch_cpus: Raw Gem5 Running in Cycle:        30200000, Inst:         7619131
4080353825500: system.switch_cpus: Raw Gem5 Running in Cycle:        30300000, Inst:         7644611
4080403825500: system.switch_cpus: Raw Gem5 Running in Cycle:        30400000, Inst:         7669378
4080453825500: system.switch_cpus: Raw Gem5 Running in Cycle:        30500000, Inst:         7694216
4080503825500: system.switch_cpus: Raw Gem5 Running in Cycle:        30600000, Inst:         7719563
4080553825500: system.switch_cpus: Raw Gem5 Running in Cycle:        30700000, Inst:         7744825
4080603825500: system.switch_cpus: Raw Gem5 Running in Cycle:        30800000, Inst:         7770745
4080653825500: system.switch_cpus: Raw Gem5 Running in Cycle:        30900000, Inst:         7795837
4080703825500: system.switch_cpus: Raw Gem5 Running in Cycle:        31000000, Inst:         7820811
4080753825500: system.switch_cpus: Raw Gem5 Running in Cycle:        31100000, Inst:         7845741
4080803825500: system.switch_cpus: Raw Gem5 Running in Cycle:        31200000, Inst:         7870373
4080853825500: system.switch_cpus: Raw Gem5 Running in Cycle:        31300000, Inst:         7895491
4080903825500: system.switch_cpus: Raw Gem5 Running in Cycle:        31400000, Inst:         7920662
4080953825500: system.switch_cpus: Raw Gem5 Running in Cycle:        31500000, Inst:         7945338
4081003825500: system.switch_cpus: Raw Gem5 Running in Cycle:        31600000, Inst:         7970876
4081053825500: system.switch_cpus: Raw Gem5 Running in Cycle:        31700000, Inst:         7995495
4081103825500: system.switch_cpus: Raw Gem5 Running in Cycle:        31800000, Inst:         8020435
4081153825500: system.switch_cpus: Raw Gem5 Running in Cycle:        31900000, Inst:         8044917
4081203825500: system.switch_cpus: Raw Gem5 Running in Cycle:        32000000, Inst:         8069472
4081253825500: system.switch_cpus: Raw Gem5 Running in Cycle:        32100000, Inst:         8094090
4081303825500: system.switch_cpus: Raw Gem5 Running in Cycle:        32200000, Inst:         8118867
4081353825500: system.switch_cpus: Raw Gem5 Running in Cycle:        32300000, Inst:         8143624
4081403825500: system.switch_cpus: Raw Gem5 Running in Cycle:        32400000, Inst:         8168460
4081453825500: system.switch_cpus: Raw Gem5 Running in Cycle:        32500000, Inst:         8193195
4081503825500: system.switch_cpus: Raw Gem5 Running in Cycle:        32600000, Inst:         8217420
4081553825500: system.switch_cpus: Raw Gem5 Running in Cycle:        32700000, Inst:         8241983
4081603825500: system.switch_cpus: Raw Gem5 Running in Cycle:        32800000, Inst:         8267538
4081653825500: system.switch_cpus: Raw Gem5 Running in Cycle:        32900000, Inst:         8292692
4081703825500: system.switch_cpus: Raw Gem5 Running in Cycle:        33000000, Inst:         8317415
4081753825500: system.switch_cpus: Raw Gem5 Running in Cycle:        33100000, Inst:         8341696
4081803825500: system.switch_cpus: Raw Gem5 Running in Cycle:        33200000, Inst:         8366331
4081853825500: system.switch_cpus: Raw Gem5 Running in Cycle:        33300000, Inst:         8391101
4081903825500: system.switch_cpus: Raw Gem5 Running in Cycle:        33400000, Inst:         8415661
4081953825500: system.switch_cpus: Raw Gem5 Running in Cycle:        33500000, Inst:         8440200
4082003825500: system.switch_cpus: Raw Gem5 Running in Cycle:        33600000, Inst:         8464306
4082053825500: system.switch_cpus: Raw Gem5 Running in Cycle:        33700000, Inst:         8489083
4082103825500: system.switch_cpus: Raw Gem5 Running in Cycle:        33800000, Inst:         8513016
4082153825500: system.switch_cpus: Raw Gem5 Running in Cycle:        33900000, Inst:         8538908
4082203825500: system.switch_cpus: Raw Gem5 Running in Cycle:        34000000, Inst:         8565420
4082253825500: system.switch_cpus: Raw Gem5 Running in Cycle:        34100000, Inst:         8592326
4082303825500: system.switch_cpus: Raw Gem5 Running in Cycle:        34200000, Inst:         8619929
4082353825500: system.switch_cpus: Raw Gem5 Running in Cycle:        34300000, Inst:         8647872
4082403825500: system.switch_cpus: Raw Gem5 Running in Cycle:        34400000, Inst:         8675993
4082453825500: system.switch_cpus: Raw Gem5 Running in Cycle:        34500000, Inst:         8704461
4082503825500: system.switch_cpus: Raw Gem5 Running in Cycle:        34600000, Inst:         8732927
4082553825500: system.switch_cpus: Raw Gem5 Running in Cycle:        34700000, Inst:         8761401
4082603825500: system.switch_cpus: Raw Gem5 Running in Cycle:        34800000, Inst:         8789528
4082653825500: system.switch_cpus: Raw Gem5 Running in Cycle:        34900000, Inst:         8817643
4082703825500: system.switch_cpus: Raw Gem5 Running in Cycle:        35000000, Inst:         8846105
4082753825500: system.switch_cpus: Raw Gem5 Running in Cycle:        35100000, Inst:         8874574
4082803825500: system.switch_cpus: Raw Gem5 Running in Cycle:        35200000, Inst:         8903040
4082853825500: system.switch_cpus: Raw Gem5 Running in Cycle:        35300000, Inst:         8931513
4082903825500: system.switch_cpus: Raw Gem5 Running in Cycle:        35400000, Inst:         8959989
4082953825500: system.switch_cpus: Raw Gem5 Running in Cycle:        35500000, Inst:         8988452
4083003825500: system.switch_cpus: Raw Gem5 Running in Cycle:        35600000, Inst:         9016921
4083053825500: system.switch_cpus: Raw Gem5 Running in Cycle:        35700000, Inst:         9045387
4083103825500: system.switch_cpus: Raw Gem5 Running in Cycle:        35800000, Inst:         9073849
4083153825500: system.switch_cpus: Raw Gem5 Running in Cycle:        35900000, Inst:         9113884
4083203825500: system.switch_cpus: Raw Gem5 Running in Cycle:        36000000, Inst:         9156271
4083253825500: system.switch_cpus: Raw Gem5 Running in Cycle:        36100000, Inst:         9198720
4083303825500: system.switch_cpus: Raw Gem5 Running in Cycle:        36200000, Inst:         9240780
4083353825500: system.switch_cpus: Raw Gem5 Running in Cycle:        36300000, Inst:         9282578
4083403825500: system.switch_cpus: Raw Gem5 Running in Cycle:        36400000, Inst:         9325701
4083453825500: system.switch_cpus: Raw Gem5 Running in Cycle:        36500000, Inst:         9368143
4083503825500: system.switch_cpus: Raw Gem5 Running in Cycle:        36600000, Inst:         9411596
4083553825500: system.switch_cpus: Raw Gem5 Running in Cycle:        36700000, Inst:         9453905
4083603825500: system.switch_cpus: Raw Gem5 Running in Cycle:        36800000, Inst:         9496175
4083653825500: system.switch_cpus: Raw Gem5 Running in Cycle:        36900000, Inst:         9538222
4083703825500: system.switch_cpus: Raw Gem5 Running in Cycle:        37000000, Inst:         9581404
4083753825500: system.switch_cpus: Raw Gem5 Running in Cycle:        37100000, Inst:         9623146
4083803825500: system.switch_cpus: Raw Gem5 Running in Cycle:        37200000, Inst:         9656225
4083853825500: system.switch_cpus: Raw Gem5 Running in Cycle:        37300000, Inst:         9689362
4083903825500: system.switch_cpus: Raw Gem5 Running in Cycle:        37400000, Inst:         9721786
4083953825500: system.switch_cpus: Raw Gem5 Running in Cycle:        37500000, Inst:         9754412
4084003825500: system.switch_cpus: Raw Gem5 Running in Cycle:        37600000, Inst:         9786927
4084053825500: system.switch_cpus: Raw Gem5 Running in Cycle:        37700000, Inst:         9820694
4084103825500: system.switch_cpus: Raw Gem5 Running in Cycle:        37800000, Inst:         9853744
4084153825500: system.switch_cpus: Raw Gem5 Running in Cycle:        37900000, Inst:         9886824
4084203825500: system.switch_cpus: Raw Gem5 Running in Cycle:        38000000, Inst:         9919584
4084253825500: system.switch_cpus: Raw Gem5 Running in Cycle:        38100000, Inst:         9952963
4084303825500: system.switch_cpus: Raw Gem5 Running in Cycle:        38200000, Inst:         9985477
4084353825500: system.switch_cpus: Raw Gem5 Running in Cycle:        38300000, Inst:        10017719
4084403825500: system.switch_cpus: Raw Gem5 Running in Cycle:        38400000, Inst:        10051080
4084453825500: system.switch_cpus: Raw Gem5 Running in Cycle:        38500000, Inst:        10083741
4084503825500: system.switch_cpus: Raw Gem5 Running in Cycle:        38600000, Inst:        10116502
4084553825500: system.switch_cpus: Raw Gem5 Running in Cycle:        38700000, Inst:        10149381
4084603825500: system.switch_cpus: Raw Gem5 Running in Cycle:        38800000, Inst:        10182833
4084653825500: system.switch_cpus: Raw Gem5 Running in Cycle:        38900000, Inst:        10215672
4084703825500: system.switch_cpus: Raw Gem5 Running in Cycle:        39000000, Inst:        10248425
4084753825500: system.switch_cpus: Raw Gem5 Running in Cycle:        39100000, Inst:        10281377
4084803825500: system.switch_cpus: Raw Gem5 Running in Cycle:        39200000, Inst:        10314670
4084853825500: system.switch_cpus: Raw Gem5 Running in Cycle:        39300000, Inst:        10347180
4084903825500: system.switch_cpus: Raw Gem5 Running in Cycle:        39400000, Inst:        10381370
4084953825500: system.switch_cpus: Raw Gem5 Running in Cycle:        39500000, Inst:        10415238
4085003825500: system.switch_cpus: Raw Gem5 Running in Cycle:        39600000, Inst:        10441483
4085053825500: system.switch_cpus: Raw Gem5 Running in Cycle:        39700000, Inst:        10467727
4085103825500: system.switch_cpus: Raw Gem5 Running in Cycle:        39800000, Inst:        10493593
4085153825500: system.switch_cpus: Raw Gem5 Running in Cycle:        39900000, Inst:        10519800
4085203825500: system.switch_cpus: Raw Gem5 Running in Cycle:        40000000, Inst:        10546346
4085253825500: system.switch_cpus: Raw Gem5 Running in Cycle:        40100000, Inst:        10571422
4085303825500: system.switch_cpus: Raw Gem5 Running in Cycle:        40200000, Inst:        10597217
4085353825500: system.switch_cpus: Raw Gem5 Running in Cycle:        40300000, Inst:        10622629
4085403825500: system.switch_cpus: Raw Gem5 Running in Cycle:        40400000, Inst:        10648813
4085453825500: system.switch_cpus: Raw Gem5 Running in Cycle:        40500000, Inst:        10674955
4085503825500: system.switch_cpus: Raw Gem5 Running in Cycle:        40600000, Inst:        10700525
4085553825500: system.switch_cpus: Raw Gem5 Running in Cycle:        40700000, Inst:        10726009
4085603825500: system.switch_cpus: Raw Gem5 Running in Cycle:        40800000, Inst:        10751671
4085653825500: system.switch_cpus: Raw Gem5 Running in Cycle:        40900000, Inst:        10777430
4085703825500: system.switch_cpus: Raw Gem5 Running in Cycle:        41000000, Inst:        10802948
4085753825500: system.switch_cpus: Raw Gem5 Running in Cycle:        41100000, Inst:        10828746
4085803825500: system.switch_cpus: Raw Gem5 Running in Cycle:        41200000, Inst:        10854113
4085853825500: system.switch_cpus: Raw Gem5 Running in Cycle:        41300000, Inst:        10879106
4085903825500: system.switch_cpus: Raw Gem5 Running in Cycle:        41400000, Inst:        10904351
4085953825500: system.switch_cpus: Raw Gem5 Running in Cycle:        41500000, Inst:        10929553
4086003825500: system.switch_cpus: Raw Gem5 Running in Cycle:        41600000, Inst:        10954605
4086053825500: system.switch_cpus: Raw Gem5 Running in Cycle:        41700000, Inst:        10979790
4086103825500: system.switch_cpus: Raw Gem5 Running in Cycle:        41800000, Inst:        11004727
4086153825500: system.switch_cpus: Raw Gem5 Running in Cycle:        41900000, Inst:        11029851
4086203825500: system.switch_cpus: Raw Gem5 Running in Cycle:        42000000, Inst:        11055113
4086253825500: system.switch_cpus: Raw Gem5 Running in Cycle:        42100000, Inst:        11080479
4086303825500: system.switch_cpus: Raw Gem5 Running in Cycle:        42200000, Inst:        11105851
4086353825500: system.switch_cpus: Raw Gem5 Running in Cycle:        42300000, Inst:        11130853
4086403825500: system.switch_cpus: Raw Gem5 Running in Cycle:        42400000, Inst:        11156870
4086453825500: system.switch_cpus: Raw Gem5 Running in Cycle:        42500000, Inst:        11184054
4086503825500: system.switch_cpus: Raw Gem5 Running in Cycle:        42600000, Inst:        11211261
4086553825500: system.switch_cpus: Raw Gem5 Running in Cycle:        42700000, Inst:        11237998
4086603825500: system.switch_cpus: Raw Gem5 Running in Cycle:        42800000, Inst:        11264528
4086653825500: system.switch_cpus: Raw Gem5 Running in Cycle:        42900000, Inst:        11291093
4086703825500: system.switch_cpus: Raw Gem5 Running in Cycle:        43000000, Inst:        11317461
4086753825500: system.switch_cpus: Raw Gem5 Running in Cycle:        43100000, Inst:        11344084
4086803825500: system.switch_cpus: Raw Gem5 Running in Cycle:        43200000, Inst:        11370520
4086853825500: system.switch_cpus: Raw Gem5 Running in Cycle:        43300000, Inst:        11396996
4086903825500: system.switch_cpus: Raw Gem5 Running in Cycle:        43400000, Inst:        11416522
4086953825500: system.switch_cpus: Raw Gem5 Running in Cycle:        43500000, Inst:        11434815
4087003825500: system.switch_cpus: Raw Gem5 Running in Cycle:        43600000, Inst:        11453930
4087053825500: system.switch_cpus: Raw Gem5 Running in Cycle:        43700000, Inst:        11472382
4087103825500: system.switch_cpus: Raw Gem5 Running in Cycle:        43800000, Inst:        11491690
4087153825500: system.switch_cpus: Raw Gem5 Running in Cycle:        43900000, Inst:        11511114
4087203825500: system.switch_cpus: Raw Gem5 Running in Cycle:        44000000, Inst:        11531061
4087253825500: system.switch_cpus: Raw Gem5 Running in Cycle:        44100000, Inst:        11551718
4087303825500: system.switch_cpus: Raw Gem5 Running in Cycle:        44200000, Inst:        11571818
4087353825500: system.switch_cpus: Raw Gem5 Running in Cycle:        44300000, Inst:        11592661
4087403825500: system.switch_cpus: Raw Gem5 Running in Cycle:        44400000, Inst:        11612618
4087453825500: system.switch_cpus: Raw Gem5 Running in Cycle:        44500000, Inst:        11632977
4087503825500: system.switch_cpus: Raw Gem5 Running in Cycle:        44600000, Inst:        11653226
4087553825500: system.switch_cpus: Raw Gem5 Running in Cycle:        44700000, Inst:        11673898
4087603825500: system.switch_cpus: Raw Gem5 Running in Cycle:        44800000, Inst:        11696060
4087653825500: system.switch_cpus: Raw Gem5 Running in Cycle:        44900000, Inst:        11722613
4087703825500: system.switch_cpus: Raw Gem5 Running in Cycle:        45000000, Inst:        11750058
4087753825500: system.switch_cpus: Raw Gem5 Running in Cycle:        45100000, Inst:        11778175
4087803825500: system.switch_cpus: Raw Gem5 Running in Cycle:        45200000, Inst:        11806641
4087853825500: system.switch_cpus: Raw Gem5 Running in Cycle:        45300000, Inst:        11835114
4087903825500: system.switch_cpus: Raw Gem5 Running in Cycle:        45400000, Inst:        11863583
4087953825500: system.switch_cpus: Raw Gem5 Running in Cycle:        45500000, Inst:        11892049
4088003825500: system.switch_cpus: Raw Gem5 Running in Cycle:        45600000, Inst:        11920522
4088053825500: system.switch_cpus: Raw Gem5 Running in Cycle:        45700000, Inst:        11948988
4088103825500: system.switch_cpus: Raw Gem5 Running in Cycle:        45800000, Inst:        11976085
4088153825500: system.switch_cpus: Raw Gem5 Running in Cycle:        45900000, Inst:        12002946
4088203825500: system.switch_cpus: Raw Gem5 Running in Cycle:        46000000, Inst:        12029717
4088253825500: system.switch_cpus: Raw Gem5 Running in Cycle:        46100000, Inst:        12056746
4088303825500: system.switch_cpus: Raw Gem5 Running in Cycle:        46200000, Inst:        12083518
4088353825500: system.switch_cpus: Raw Gem5 Running in Cycle:        46300000, Inst:        12111146
4088403825500: system.switch_cpus: Raw Gem5 Running in Cycle:        46400000, Inst:        12139626
4088453825500: system.switch_cpus: Raw Gem5 Running in Cycle:        46500000, Inst:        12168085
4088503825500: system.switch_cpus: Raw Gem5 Running in Cycle:        46600000, Inst:        12196554
4088553825500: system.switch_cpus: Raw Gem5 Running in Cycle:        46700000, Inst:        12225022
4088603825500: system.switch_cpus: Raw Gem5 Running in Cycle:        46800000, Inst:        12253484
4088653825500: system.switch_cpus: Raw Gem5 Running in Cycle:        46900000, Inst:        12293042
4088703825500: system.switch_cpus: Raw Gem5 Running in Cycle:        47000000, Inst:        12330873
4088753825500: system.switch_cpus: Raw Gem5 Running in Cycle:        47100000, Inst:        12367999
4088803825500: system.switch_cpus: Raw Gem5 Running in Cycle:        47200000, Inst:        12405879
4088853825500: system.switch_cpus: Raw Gem5 Running in Cycle:        47300000, Inst:        12443173
4088903825500: system.switch_cpus: Raw Gem5 Running in Cycle:        47400000, Inst:        12480107
4088953825500: system.switch_cpus: Raw Gem5 Running in Cycle:        47500000, Inst:        12517346
4089003825500: system.switch_cpus: Raw Gem5 Running in Cycle:        47600000, Inst:        12554194
4089053825500: system.switch_cpus: Raw Gem5 Running in Cycle:        47700000, Inst:        12590392
4089103825500: system.switch_cpus: Raw Gem5 Running in Cycle:        47800000, Inst:        12626951
4089153825500: system.switch_cpus: Raw Gem5 Running in Cycle:        47900000, Inst:        12662029
4089203825500: system.switch_cpus: Raw Gem5 Running in Cycle:        48000000, Inst:        12698033
4089253825500: system.switch_cpus: Raw Gem5 Running in Cycle:        48100000, Inst:        12733504
4089303825500: system.switch_cpus: Raw Gem5 Running in Cycle:        48200000, Inst:        12769368
4089353825500: system.switch_cpus: Raw Gem5 Running in Cycle:        48300000, Inst:        12802732
4089403825500: system.switch_cpus: Raw Gem5 Running in Cycle:        48400000, Inst:        12831194
4089453825500: system.switch_cpus: Raw Gem5 Running in Cycle:        48500000, Inst:        12859666
4089503825500: system.switch_cpus: Raw Gem5 Running in Cycle:        48600000, Inst:        12888133
4089553825500: system.switch_cpus: Raw Gem5 Running in Cycle:        48700000, Inst:        12916602
4089603825500: system.switch_cpus: Raw Gem5 Running in Cycle:        48800000, Inst:        12945068
4089653825500: system.switch_cpus: Raw Gem5 Running in Cycle:        48900000, Inst:        12973541
4089703825500: system.switch_cpus: Raw Gem5 Running in Cycle:        49000000, Inst:        13014290
4089753825500: system.switch_cpus: Raw Gem5 Running in Cycle:        49100000, Inst:        13056312
4089803825500: system.switch_cpus: Raw Gem5 Running in Cycle:        49200000, Inst:        13098436
4089853825500: system.switch_cpus: Raw Gem5 Running in Cycle:        49300000, Inst:        13140703
4089903825500: system.switch_cpus: Raw Gem5 Running in Cycle:        49400000, Inst:        13183338
4089953825500: system.switch_cpus: Raw Gem5 Running in Cycle:        49500000, Inst:        13225973
4090003825500: system.switch_cpus: Raw Gem5 Running in Cycle:        49600000, Inst:        13268168
4090053825500: system.switch_cpus: Raw Gem5 Running in Cycle:        49700000, Inst:        13310165
4090103825500: system.switch_cpus: Raw Gem5 Running in Cycle:        49800000, Inst:        13352601
4090153825500: system.switch_cpus: Raw Gem5 Running in Cycle:        49900000, Inst:        13395391
4090203825500: system.switch_cpus: Raw Gem5 Running in Cycle:        50000000, Inst:        13438268
4090253825500: system.switch_cpus: Raw Gem5 Running in Cycle:        50100000, Inst:        13480587
4090303825500: system.switch_cpus: Raw Gem5 Running in Cycle:        50200000, Inst:        13523883
4090353825500: system.switch_cpus: Raw Gem5 Running in Cycle:        50300000, Inst:        13560215
4090403825500: system.switch_cpus: Raw Gem5 Running in Cycle:        50400000, Inst:        13596825
4090453825500: system.switch_cpus: Raw Gem5 Running in Cycle:        50500000, Inst:        13633308
4090503825500: system.switch_cpus: Raw Gem5 Running in Cycle:        50600000, Inst:        13669799
4090553825500: system.switch_cpus: Raw Gem5 Running in Cycle:        50700000, Inst:        13705188
4090603825500: system.switch_cpus: Raw Gem5 Running in Cycle:        50800000, Inst:        13738543
4090653825500: system.switch_cpus: Raw Gem5 Running in Cycle:        50900000, Inst:        13770966
4090703825500: system.switch_cpus: Raw Gem5 Running in Cycle:        51000000, Inst:        13805527
4090753825500: system.switch_cpus: Raw Gem5 Running in Cycle:        51100000, Inst:        13843093
4090803825500: system.switch_cpus: Raw Gem5 Running in Cycle:        51200000, Inst:        13882970
4090853825500: system.switch_cpus: Raw Gem5 Running in Cycle:        51300000, Inst:        13921503
4090903825500: system.switch_cpus: Raw Gem5 Running in Cycle:        51400000, Inst:        13960396
4090953825500: system.switch_cpus: Raw Gem5 Running in Cycle:        51500000, Inst:        13998854
4091003825500: system.switch_cpus: Raw Gem5 Running in Cycle:        51600000, Inst:        14036716
4091053825500: system.switch_cpus: Raw Gem5 Running in Cycle:        51700000, Inst:        14075683
4091103825500: system.switch_cpus: Raw Gem5 Running in Cycle:        51800000, Inst:        14113596
4091153825500: system.switch_cpus: Raw Gem5 Running in Cycle:        51900000, Inst:        14151929
4091203825500: system.switch_cpus: Raw Gem5 Running in Cycle:        52000000, Inst:        14191367
4091253825500: system.switch_cpus: Raw Gem5 Running in Cycle:        52100000, Inst:        14228957
4091303825500: system.switch_cpus: Raw Gem5 Running in Cycle:        52200000, Inst:        14266608
4091353825500: system.switch_cpus: Raw Gem5 Running in Cycle:        52300000, Inst:        14305920
4091403825500: system.switch_cpus: Raw Gem5 Running in Cycle:        52400000, Inst:        14344788
4091453825500: system.switch_cpus: Raw Gem5 Running in Cycle:        52500000, Inst:        14383466
4091503825500: system.switch_cpus: Raw Gem5 Running in Cycle:        52600000, Inst:        14422399
4091553825500: system.switch_cpus: Raw Gem5 Running in Cycle:        52700000, Inst:        14460753
4091603825500: system.switch_cpus: Raw Gem5 Running in Cycle:        52800000, Inst:        14498816
4091653825500: system.switch_cpus: Raw Gem5 Running in Cycle:        52900000, Inst:        14527651
4091703825500: system.switch_cpus: Raw Gem5 Running in Cycle:        53000000, Inst:        14554702
4091753825500: system.switch_cpus: Raw Gem5 Running in Cycle:        53100000, Inst:        14581497
4091803825500: system.switch_cpus: Raw Gem5 Running in Cycle:        53200000, Inst:        14608739
4091853825500: system.switch_cpus: Raw Gem5 Running in Cycle:        53300000, Inst:        14636430
4091903825500: system.switch_cpus: Raw Gem5 Running in Cycle:        53400000, Inst:        14664206
4091953825500: system.switch_cpus: Raw Gem5 Running in Cycle:        53500000, Inst:        14692277
4092003825500: system.switch_cpus: Raw Gem5 Running in Cycle:        53600000, Inst:        14719710
4092053825500: system.switch_cpus: Raw Gem5 Running in Cycle:        53700000, Inst:        14747477
4092103825500: system.switch_cpus: Raw Gem5 Running in Cycle:        53800000, Inst:        14775253
4092153825500: system.switch_cpus: Raw Gem5 Running in Cycle:        53900000, Inst:        14803022
4092203825500: system.switch_cpus: Raw Gem5 Running in Cycle:        54000000, Inst:        14831501
4092253825500: system.switch_cpus: Raw Gem5 Running in Cycle:        54100000, Inst:        14859961
4092303825500: system.switch_cpus: Raw Gem5 Running in Cycle:        54200000, Inst:        14888430
4092353825500: system.switch_cpus: Raw Gem5 Running in Cycle:        54300000, Inst:        14916897
4092403825500: system.switch_cpus: Raw Gem5 Running in Cycle:        54400000, Inst:        14945369
4092453825500: system.switch_cpus: Raw Gem5 Running in Cycle:        54500000, Inst:        14973838
4092503825500: system.switch_cpus: Raw Gem5 Running in Cycle:        54600000, Inst:        15002306
4092553825500: system.switch_cpus: Raw Gem5 Running in Cycle:        54700000, Inst:        15030768
4092603825500: system.switch_cpus: Raw Gem5 Running in Cycle:        54800000, Inst:        15059246
4092653825500: system.switch_cpus: Raw Gem5 Running in Cycle:        54900000, Inst:        15102142
4092703825500: system.switch_cpus: Raw Gem5 Running in Cycle:        55000000, Inst:        15143676
4092753825500: system.switch_cpus: Raw Gem5 Running in Cycle:        55100000, Inst:        15186438
4092803825500: system.switch_cpus: Raw Gem5 Running in Cycle:        55200000, Inst:        15228658
4092853825500: system.switch_cpus: Raw Gem5 Running in Cycle:        55300000, Inst:        15271224
4092903825500: system.switch_cpus: Raw Gem5 Running in Cycle:        55400000, Inst:        15313959
4092953825500: system.switch_cpus: Raw Gem5 Running in Cycle:        55500000, Inst:        15357269
4093003825500: system.switch_cpus: Raw Gem5 Running in Cycle:        55600000, Inst:        15399510
4093053825500: system.switch_cpus: Raw Gem5 Running in Cycle:        55700000, Inst:        15441854
4093103825500: system.switch_cpus: Raw Gem5 Running in Cycle:        55800000, Inst:        15483967
4093153825500: system.switch_cpus: Raw Gem5 Running in Cycle:        55900000, Inst:        15526761
4093203825500: system.switch_cpus: Raw Gem5 Running in Cycle:        56000000, Inst:        15568676
4093253825500: system.switch_cpus: Raw Gem5 Running in Cycle:        56100000, Inst:        15612142
4093303825500: system.switch_cpus: Raw Gem5 Running in Cycle:        56200000, Inst:        15654748
4093353825500: system.switch_cpus: Raw Gem5 Running in Cycle:        56300000, Inst:        15696723
4093403825500: system.switch_cpus: Raw Gem5 Running in Cycle:        56400000, Inst:        15739046
4093453825500: system.switch_cpus: Raw Gem5 Running in Cycle:        56500000, Inst:        15781940
4093503825500: system.switch_cpus: Raw Gem5 Running in Cycle:        56600000, Inst:        15816853
4093553825500: system.switch_cpus: Raw Gem5 Running in Cycle:        56700000, Inst:        15849710
4093603825500: system.switch_cpus: Raw Gem5 Running in Cycle:        56800000, Inst:        15882332
4093653825500: system.switch_cpus: Raw Gem5 Running in Cycle:        56900000, Inst:        15914188
4093703825500: system.switch_cpus: Raw Gem5 Running in Cycle:        57000000, Inst:        15942656
4093753825500: system.switch_cpus: Raw Gem5 Running in Cycle:        57100000, Inst:        15971123
4093803825500: system.switch_cpus: Raw Gem5 Running in Cycle:        57200000, Inst:        15999596
4093853825500: system.switch_cpus: Raw Gem5 Running in Cycle:        57300000, Inst:        16028065
4093903825500: system.switch_cpus: Raw Gem5 Running in Cycle:        57400000, Inst:        16056531
4093953825500: system.switch_cpus: Raw Gem5 Running in Cycle:        57500000, Inst:        16085004
4094003825500: system.switch_cpus: Raw Gem5 Running in Cycle:        57600000, Inst:        16113470
4094053825500: system.switch_cpus: Raw Gem5 Running in Cycle:        57700000, Inst:        16141932
4094103825500: system.switch_cpus: Raw Gem5 Running in Cycle:        57800000, Inst:        16170404
4094153825500: system.switch_cpus: Raw Gem5 Running in Cycle:        57900000, Inst:        16198871
4094203825500: system.switch_cpus: Raw Gem5 Running in Cycle:        58000000, Inst:        16242339
4094253825500: system.switch_cpus: Raw Gem5 Running in Cycle:        58100000, Inst:        16285905
4094303825500: system.switch_cpus: Raw Gem5 Running in Cycle:        58200000, Inst:        16329902
4094353825500: system.switch_cpus: Raw Gem5 Running in Cycle:        58300000, Inst:        16374071
4094403825500: system.switch_cpus: Raw Gem5 Running in Cycle:        58400000, Inst:        16417972
4094453825500: system.switch_cpus: Raw Gem5 Running in Cycle:        58500000, Inst:        16461372
4094503825500: system.switch_cpus: Raw Gem5 Running in Cycle:        58600000, Inst:        16505385
4094553825500: system.switch_cpus: Raw Gem5 Running in Cycle:        58700000, Inst:        16548762
4094603825500: system.switch_cpus: Raw Gem5 Running in Cycle:        58800000, Inst:        16593466
4094653825500: system.switch_cpus: Raw Gem5 Running in Cycle:        58900000, Inst:        16637953
4094703825500: system.switch_cpus: Raw Gem5 Running in Cycle:        59000000, Inst:        16681774
4094753825500: system.switch_cpus: Raw Gem5 Running in Cycle:        59100000, Inst:        16726376
4094803825500: system.switch_cpus: Raw Gem5 Running in Cycle:        59200000, Inst:        16771018
4094853825500: system.switch_cpus: Raw Gem5 Running in Cycle:        59300000, Inst:        16814820
4094903825500: system.switch_cpus: Raw Gem5 Running in Cycle:        59400000, Inst:        16858639
4094953825500: system.switch_cpus: Raw Gem5 Running in Cycle:        59500000, Inst:        16902161
4095003825500: system.switch_cpus: Raw Gem5 Running in Cycle:        59600000, Inst:        16943160
4095053825500: system.switch_cpus: Raw Gem5 Running in Cycle:        59700000, Inst:        16976540
4095103825500: system.switch_cpus: Raw Gem5 Running in Cycle:        59800000, Inst:        17010382
4095153825500: system.switch_cpus: Raw Gem5 Running in Cycle:        59900000, Inst:        17044264
4095203825500: system.switch_cpus: Raw Gem5 Running in Cycle:        60000000, Inst:        17070107
4095253825500: system.switch_cpus: Raw Gem5 Running in Cycle:        60100000, Inst:        17096409
4095303825500: system.switch_cpus: Raw Gem5 Running in Cycle:        60200000, Inst:        17122343
4095353825500: system.switch_cpus: Raw Gem5 Running in Cycle:        60300000, Inst:        17148726
4095403825500: system.switch_cpus: Raw Gem5 Running in Cycle:        60400000, Inst:        17174356
4095453825500: system.switch_cpus: Raw Gem5 Running in Cycle:        60500000, Inst:        17199506
4095503825500: system.switch_cpus: Raw Gem5 Running in Cycle:        60600000, Inst:        17224892
4095553825500: system.switch_cpus: Raw Gem5 Running in Cycle:        60700000, Inst:        17250121
4095603825500: system.switch_cpus: Raw Gem5 Running in Cycle:        60800000, Inst:        17275300
4095653825500: system.switch_cpus: Raw Gem5 Running in Cycle:        60900000, Inst:        17300458
4095703825500: system.switch_cpus: Raw Gem5 Running in Cycle:        61000000, Inst:        17325691
4095753825500: system.switch_cpus: Raw Gem5 Running in Cycle:        61100000, Inst:        17349243
4095803825500: system.switch_cpus: Raw Gem5 Running in Cycle:        61200000, Inst:        17374582
4095853825500: system.switch_cpus: Raw Gem5 Running in Cycle:        61300000, Inst:        17399918
4095903825500: system.switch_cpus: Raw Gem5 Running in Cycle:        61400000, Inst:        17424553
4095953825500: system.switch_cpus: Raw Gem5 Running in Cycle:        61500000, Inst:        17449599
4096003825500: system.switch_cpus: Raw Gem5 Running in Cycle:        61600000, Inst:        17474947
4096053825500: system.switch_cpus: Raw Gem5 Running in Cycle:        61700000, Inst:        17501759
4096103825500: system.switch_cpus: Raw Gem5 Running in Cycle:        61800000, Inst:        17528415
4096153825500: system.switch_cpus: Raw Gem5 Running in Cycle:        61900000, Inst:        17555726
4096203825500: system.switch_cpus: Raw Gem5 Running in Cycle:        62000000, Inst:        17582102
4096253825500: system.switch_cpus: Raw Gem5 Running in Cycle:        62100000, Inst:        17609096
4096303825500: system.switch_cpus: Raw Gem5 Running in Cycle:        62200000, Inst:        17635260
4096353825500: system.switch_cpus: Raw Gem5 Running in Cycle:        62300000, Inst:        17661788
4096403825500: system.switch_cpus: Raw Gem5 Running in Cycle:        62400000, Inst:        17688927
4096453825500: system.switch_cpus: Raw Gem5 Running in Cycle:        62500000, Inst:        17715778
4096503825500: system.switch_cpus: Raw Gem5 Running in Cycle:        62600000, Inst:        17742077
4096553825500: system.switch_cpus: Raw Gem5 Running in Cycle:        62700000, Inst:        17768457
4096603825500: system.switch_cpus: Raw Gem5 Running in Cycle:        62800000, Inst:        17795584
4096653825500: system.switch_cpus: Raw Gem5 Running in Cycle:        62900000, Inst:        17822659
4096703825500: system.switch_cpus: Raw Gem5 Running in Cycle:        63000000, Inst:        17849931
4096753825500: system.switch_cpus: Raw Gem5 Running in Cycle:        63100000, Inst:        17876971
4096803825500: system.switch_cpus: Raw Gem5 Running in Cycle:        63200000, Inst:        17904811
4096853825500: system.switch_cpus: Raw Gem5 Running in Cycle:        63300000, Inst:        17932150
4096903825500: system.switch_cpus: Raw Gem5 Running in Cycle:        63400000, Inst:        17959883
4096953825500: system.switch_cpus: Raw Gem5 Running in Cycle:        63500000, Inst:        17987520
4097003825500: system.switch_cpus: Raw Gem5 Running in Cycle:        63600000, Inst:        18015200
4097053825500: system.switch_cpus: Raw Gem5 Running in Cycle:        63700000, Inst:        18043666
4097103825500: system.switch_cpus: Raw Gem5 Running in Cycle:        63800000, Inst:        18071403
4097153825500: system.switch_cpus: Raw Gem5 Running in Cycle:        63900000, Inst:        18099869
4097203825500: system.switch_cpus: Raw Gem5 Running in Cycle:        64000000, Inst:        18128331
4097253825500: system.switch_cpus: Raw Gem5 Running in Cycle:        64100000, Inst:        18156807
4097303825500: system.switch_cpus: Raw Gem5 Running in Cycle:        64200000, Inst:        18185270
4097353825500: system.switch_cpus: Raw Gem5 Running in Cycle:        64300000, Inst:        18213739
4097403825500: system.switch_cpus: Raw Gem5 Running in Cycle:        64400000, Inst:        18242205
4097453825500: system.switch_cpus: Raw Gem5 Running in Cycle:        64500000, Inst:        18270678
4097503825500: system.switch_cpus: Raw Gem5 Running in Cycle:        64600000, Inst:        18299147
4097553825500: system.switch_cpus: Raw Gem5 Running in Cycle:        64700000, Inst:        18327615
4097603825500: system.switch_cpus: Raw Gem5 Running in Cycle:        64800000, Inst:        18364966
4097653825500: system.switch_cpus: Raw Gem5 Running in Cycle:        64900000, Inst:        18404660
4097703825500: system.switch_cpus: Raw Gem5 Running in Cycle:        65000000, Inst:        18450725
4097753825500: system.switch_cpus: Raw Gem5 Running in Cycle:        65100000, Inst:        18494694
4097803825500: system.switch_cpus: Raw Gem5 Running in Cycle:        65200000, Inst:        18539260
4097853825500: system.switch_cpus: Raw Gem5 Running in Cycle:        65300000, Inst:        18582090
4097903825500: system.switch_cpus: Raw Gem5 Running in Cycle:        65400000, Inst:        18625235
4097953825500: system.switch_cpus: Raw Gem5 Running in Cycle:        65500000, Inst:        18668958
4098003825500: system.switch_cpus: Raw Gem5 Running in Cycle:        65600000, Inst:        18712649
4098053825500: system.switch_cpus: Raw Gem5 Running in Cycle:        65700000, Inst:        18756482
4098103825500: system.switch_cpus: Raw Gem5 Running in Cycle:        65800000, Inst:        18801173
4098153825500: system.switch_cpus: Raw Gem5 Running in Cycle:        65900000, Inst:        18844414
4098203825500: system.switch_cpus: Raw Gem5 Running in Cycle:        66000000, Inst:        18887879
4098253825500: system.switch_cpus: Raw Gem5 Running in Cycle:        66100000, Inst:        18931303
4098303825500: system.switch_cpus: Raw Gem5 Running in Cycle:        66200000, Inst:        18974591
4098353825500: system.switch_cpus: Raw Gem5 Running in Cycle:        66300000, Inst:        19017895
4098403825500: system.switch_cpus: Raw Gem5 Running in Cycle:        66400000, Inst:        19061967
4098453825500: system.switch_cpus: Raw Gem5 Running in Cycle:        66500000, Inst:        19105395
4098503825500: system.switch_cpus: Raw Gem5 Running in Cycle:        66600000, Inst:        19148330
4098553825500: system.switch_cpus: Raw Gem5 Running in Cycle:        66700000, Inst:        19186242
4098603825500: system.switch_cpus: Raw Gem5 Running in Cycle:        66800000, Inst:        19214704
4098653825500: system.switch_cpus: Raw Gem5 Running in Cycle:        66900000, Inst:        19243184
4098703825500: system.switch_cpus: Raw Gem5 Running in Cycle:        67000000, Inst:        19271643
4098753825500: system.switch_cpus: Raw Gem5 Running in Cycle:        67100000, Inst:        19300112
4098803825500: system.switch_cpus: Raw Gem5 Running in Cycle:        67200000, Inst:        19328592
4098853825500: system.switch_cpus: Raw Gem5 Running in Cycle:        67300000, Inst:        19357051
4098903825500: system.switch_cpus: Raw Gem5 Running in Cycle:        67400000, Inst:        19385520
4098953825500: system.switch_cpus: Raw Gem5 Running in Cycle:        67500000, Inst:        19413988
4099003825500: system.switch_cpus: Raw Gem5 Running in Cycle:        67600000, Inst:        19442455
4099053825500: system.switch_cpus: Raw Gem5 Running in Cycle:        67700000, Inst:        19476168
4099103825500: system.switch_cpus: Raw Gem5 Running in Cycle:        67800000, Inst:        19499337
4099153825500: system.switch_cpus: Raw Gem5 Running in Cycle:        67900000, Inst:        19523591
4099203825500: system.switch_cpus: Raw Gem5 Running in Cycle:        68000000, Inst:        19546772
4099253825500: system.switch_cpus: Raw Gem5 Running in Cycle:        68100000, Inst:        19570398
4099303825500: system.switch_cpus: Raw Gem5 Running in Cycle:        68200000, Inst:        19594472
4099353825500: system.switch_cpus: Raw Gem5 Running in Cycle:        68300000, Inst:        19618034
4099403825500: system.switch_cpus: Raw Gem5 Running in Cycle:        68400000, Inst:        19641745
4099453825500: system.switch_cpus: Raw Gem5 Running in Cycle:        68500000, Inst:        19665238
4099503825500: system.switch_cpus: Raw Gem5 Running in Cycle:        68600000, Inst:        19688603
4099553825500: system.switch_cpus: Raw Gem5 Running in Cycle:        68700000, Inst:        19712089
4099603825500: system.switch_cpus: Raw Gem5 Running in Cycle:        68800000, Inst:        19735367
4099653825500: system.switch_cpus: Raw Gem5 Running in Cycle:        68900000, Inst:        19758416
4099703825500: system.switch_cpus: Raw Gem5 Running in Cycle:        69000000, Inst:        19780305
4099753825500: system.switch_cpus: Raw Gem5 Running in Cycle:        69100000, Inst:        19799089
4099803825500: system.switch_cpus: Raw Gem5 Running in Cycle:        69200000, Inst:        19817600
4099853825500: system.switch_cpus: Raw Gem5 Running in Cycle:        69300000, Inst:        19835879
4099903825500: system.switch_cpus: Raw Gem5 Running in Cycle:        69400000, Inst:        19854051
4099953825500: system.switch_cpus: Raw Gem5 Running in Cycle:        69500000, Inst:        19872845
4100003825500: system.switch_cpus: Raw Gem5 Running in Cycle:        69600000, Inst:        19891248
4100053825500: system.switch_cpus: Raw Gem5 Running in Cycle:        69700000, Inst:        19909097
4100103825500: system.switch_cpus: Raw Gem5 Running in Cycle:        69800000, Inst:        19927244
4100153825500: system.switch_cpus: Raw Gem5 Running in Cycle:        69900000, Inst:        19945288
4100203825500: system.switch_cpus: Raw Gem5 Running in Cycle:        70000000, Inst:        19963266
4100253825500: system.switch_cpus: Raw Gem5 Running in Cycle:        70100000, Inst:        19981246
4100303825500: system.switch_cpus: Raw Gem5 Running in Cycle:        70200000, Inst:        19999159
4100353825500: system.switch_cpus: Raw Gem5 Running in Cycle:        70300000, Inst:        20017162
4100403825500: system.switch_cpus: Raw Gem5 Running in Cycle:        70400000, Inst:        20034927
4100453825500: system.switch_cpus: Raw Gem5 Running in Cycle:        70500000, Inst:        20052460
4100503825500: system.switch_cpus: Raw Gem5 Running in Cycle:        70600000, Inst:        20069669
4100553825500: system.switch_cpus: Raw Gem5 Running in Cycle:        70700000, Inst:        20087296
4100603825500: system.switch_cpus: Raw Gem5 Running in Cycle:        70800000, Inst:        20105068
4100653825500: system.switch_cpus: Raw Gem5 Running in Cycle:        70900000, Inst:        20122781
4100703825500: system.switch_cpus: Raw Gem5 Running in Cycle:        71000000, Inst:        20140069
4100753825500: system.switch_cpus: Raw Gem5 Running in Cycle:        71100000, Inst:        20157128
4100803825500: system.switch_cpus: Raw Gem5 Running in Cycle:        71200000, Inst:        20174055
4100853825500: system.switch_cpus: Raw Gem5 Running in Cycle:        71300000, Inst:        20191251
4100903825500: system.switch_cpus: Raw Gem5 Running in Cycle:        71400000, Inst:        20208134
4100953825500: system.switch_cpus: Raw Gem5 Running in Cycle:        71500000, Inst:        20225048
4101003825500: system.switch_cpus: Raw Gem5 Running in Cycle:        71600000, Inst:        20241928
4101053825500: system.switch_cpus: Raw Gem5 Running in Cycle:        71700000, Inst:        20258609
4101103825500: system.switch_cpus: Raw Gem5 Running in Cycle:        71800000, Inst:        20280924
4101153825500: system.switch_cpus: Raw Gem5 Running in Cycle:        71900000, Inst:        20308364
4101203825500: system.switch_cpus: Raw Gem5 Running in Cycle:        72000000, Inst:        20335068
4101253825500: system.switch_cpus: Raw Gem5 Running in Cycle:        72100000, Inst:        20361545
4101303825500: system.switch_cpus: Raw Gem5 Running in Cycle:        72200000, Inst:        20388027
4101353825500: system.switch_cpus: Raw Gem5 Running in Cycle:        72300000, Inst:        20414776
4101403825500: system.switch_cpus: Raw Gem5 Running in Cycle:        72400000, Inst:        20441116
4101453825500: system.switch_cpus: Raw Gem5 Running in Cycle:        72500000, Inst:        20466947
4101503825500: system.switch_cpus: Raw Gem5 Running in Cycle:        72600000, Inst:        20493418
4101553825500: system.switch_cpus: Raw Gem5 Running in Cycle:        72700000, Inst:        20521524
4101603825500: system.switch_cpus: Raw Gem5 Running in Cycle:        72800000, Inst:        20549987
4101653825500: system.switch_cpus: Raw Gem5 Running in Cycle:        72900000, Inst:        20578456
4101703825500: system.switch_cpus: Raw Gem5 Running in Cycle:        73000000, Inst:        20606922
4101753825500: system.switch_cpus: Raw Gem5 Running in Cycle:        73100000, Inst:        20635395
4101803825500: system.switch_cpus: Raw Gem5 Running in Cycle:        73200000, Inst:        20663864
4101853825500: system.switch_cpus: Raw Gem5 Running in Cycle:        73300000, Inst:        20692332
4101903825500: system.switch_cpus: Raw Gem5 Running in Cycle:        73400000, Inst:        20720792
4101953825500: system.switch_cpus: Raw Gem5 Running in Cycle:        73500000, Inst:        20749272
4102003825500: system.switch_cpus: Raw Gem5 Running in Cycle:        73600000, Inst:        20777731
4102053825500: system.switch_cpus: Raw Gem5 Running in Cycle:        73700000, Inst:        20806200
4102103825500: system.switch_cpus: Raw Gem5 Running in Cycle:        73800000, Inst:        20834669
4102153825500: system.switch_cpus: Raw Gem5 Running in Cycle:        73900000, Inst:        20863135
4102203825500: system.switch_cpus: Raw Gem5 Running in Cycle:        74000000, Inst:        20900069
4102253825500: system.switch_cpus: Raw Gem5 Running in Cycle:        74100000, Inst:        20943105
4102303825500: system.switch_cpus: Raw Gem5 Running in Cycle:        74200000, Inst:        20978056
4102353825500: system.switch_cpus: Raw Gem5 Running in Cycle:        74300000, Inst:        21021314
4102403825500: system.switch_cpus: Raw Gem5 Running in Cycle:        74400000, Inst:        21066016
4102453825500: system.switch_cpus: Raw Gem5 Running in Cycle:        74500000, Inst:        21110556
4102503825500: system.switch_cpus: Raw Gem5 Running in Cycle:        74600000, Inst:        21155321
4102553825500: system.switch_cpus: Raw Gem5 Running in Cycle:        74700000, Inst:        21200071
4102603825500: system.switch_cpus: Raw Gem5 Running in Cycle:        74800000, Inst:        21239760
4102653825500: system.switch_cpus: Raw Gem5 Running in Cycle:        74900000, Inst:        21265150
4102703825500: system.switch_cpus: Raw Gem5 Running in Cycle:        75000000, Inst:        21291171
4102753825500: system.switch_cpus: Raw Gem5 Running in Cycle:        75100000, Inst:        21317018
4102803825500: system.switch_cpus: Raw Gem5 Running in Cycle:        75200000, Inst:        21343461
4102853825500: system.switch_cpus: Raw Gem5 Running in Cycle:        75300000, Inst:        21369283
4102903825500: system.switch_cpus: Raw Gem5 Running in Cycle:        75400000, Inst:        21395170
4102953825500: system.switch_cpus: Raw Gem5 Running in Cycle:        75500000, Inst:        21421257
4103003825500: system.switch_cpus: Raw Gem5 Running in Cycle:        75600000, Inst:        21447668
4103053825500: system.switch_cpus: Raw Gem5 Running in Cycle:        75700000, Inst:        21473584
4103103825500: system.switch_cpus: Raw Gem5 Running in Cycle:        75800000, Inst:        21498883
[...]
4138403825500: system.switch_cpus: Raw Gem5 Running in Cycle:       146400000, Inst:        40151922
4138453825500: system.switch_cpus: Raw Gem5 Running in Cycle:       146500000, Inst:        40170404
4138503825500: system.switch_cpus: Raw Gem5 Running in Cycle:       146600000, Inst:        40189426
4138553825500: system.switch_cpus: Raw Gem5 Running in Cycle:       146700000, Inst:        40208029
4138603825500: system.switch_cpus: Raw Gem5 Running in Cycle:       146800000, Inst:        40225876
4138653825500: system.switch_cpus: Raw Gem5 Running in Cycle:       146900000, Inst:        40244189
4138703825500: system.switch_cpus: Raw Gem5 Running in Cycle:       147000000, Inst:        40262642
4138753825500: system.switch_cpus: Raw Gem5 Running in Cycle:       147100000, Inst:        40281362
4138803825500: system.switch_cpus: Raw Gem5 Running in Cycle:       147200000, Inst:        40300562
4138853825500: system.switch_cpus: Raw Gem5 Running in Cycle:       147300000, Inst:        40325650
4138903825500: system.switch_cpus: Raw Gem5 Running in Cycle:       147400000, Inst:        40351985
4138953825500: system.switch_cpus: Raw Gem5 Running in Cycle:       147500000, Inst:        40379161
4139003825500: system.switch_cpus: Raw Gem5 Running in Cycle:       147600000, Inst:        40406738
4139053825500: system.switch_cpus: Raw Gem5 Running in Cycle:       147700000, Inst:        40433842
4139103825500: system.switch_cpus: Raw Gem5 Running in Cycle:       147800000, Inst:        40462301
4139153825500: system.switch_cpus: Raw Gem5 Running in Cycle:       147900000, Inst:        40490418
4139203825500: system.switch_cpus: Raw Gem5 Running in Cycle:       148000000, Inst:        40518887
4139253825500: system.switch_cpus: Raw Gem5 Running in Cycle:       148100000, Inst:        40547364
4139303825500: system.switch_cpus: Raw Gem5 Running in Cycle:       148200000, Inst:        40575826
4139353825500: system.switch_cpus: Raw Gem5 Running in Cycle:       148300000, Inst:        40604305
4139403825500: system.switch_cpus: Raw Gem5 Running in Cycle:       148400000, Inst:        40630951
4139453825500: system.switch_cpus: Raw Gem5 Running in Cycle:       148500000, Inst:        40657126
4139503825500: system.switch_cpus: Raw Gem5 Running in Cycle:       148600000, Inst:        40683889
4139553825500: system.switch_cpus: Raw Gem5 Running in Cycle:       148700000, Inst:        40710932
4139603825500: system.switch_cpus: Raw Gem5 Running in Cycle:       148800000, Inst:        40738321
4139653825500: system.switch_cpus: Raw Gem5 Running in Cycle:       148900000, Inst:        40766439
4139703825500: system.switch_cpus: Raw Gem5 Running in Cycle:       149000000, Inst:        40794905
4139753825500: system.switch_cpus: Raw Gem5 Running in Cycle:       149100000, Inst:        40823026
4139803825500: system.switch_cpus: Raw Gem5 Running in Cycle:       149200000, Inst:        40851494
4139853825500: system.switch_cpus: Raw Gem5 Running in Cycle:       149300000, Inst:        40879956
4139903825500: system.switch_cpus: Raw Gem5 Running in Cycle:       149400000, Inst:        40908434
4139953825500: system.switch_cpus: Raw Gem5 Running in Cycle:       149500000, Inst:        40948040
4140003825500: system.switch_cpus: Raw Gem5 Running in Cycle:       149600000, Inst:        40982094
4140053825500: system.switch_cpus: Raw Gem5 Running in Cycle:       149700000, Inst:        41016725
4140103825500: system.switch_cpus: Raw Gem5 Running in Cycle:       149800000, Inst:        41051991
4140153825500: system.switch_cpus: Raw Gem5 Running in Cycle:       149900000, Inst:        41086730
4140203825500: system.switch_cpus: Raw Gem5 Running in Cycle:       150000000, Inst:        41121022
4140253825500: system.switch_cpus: Raw Gem5 Running in Cycle:       150100000, Inst:        41156125
4140303825500: system.switch_cpus: Raw Gem5 Running in Cycle:       150200000, Inst:        41190920
4140353825500: system.switch_cpus: Raw Gem5 Running in Cycle:       150300000, Inst:        41225451
4140403825500: system.switch_cpus: Raw Gem5 Running in Cycle:       150400000, Inst:        41260794
4140453825500: system.switch_cpus: Raw Gem5 Running in Cycle:       150500000, Inst:        41295216
4140503825500: system.switch_cpus: Raw Gem5 Running in Cycle:       150600000, Inst:        41329702
4140553825500: system.switch_cpus: Raw Gem5 Running in Cycle:       150700000, Inst:        41362731
4140603825500: system.switch_cpus: Raw Gem5 Running in Cycle:       150800000, Inst:        41396226
4140653825500: system.switch_cpus: Raw Gem5 Running in Cycle:       150900000, Inst:        41429786
4140703825500: system.switch_cpus: Raw Gem5 Running in Cycle:       151000000, Inst:        41463004
4140753825500: system.switch_cpus: Raw Gem5 Running in Cycle:       151100000, Inst:        41495150
4140803825500: system.switch_cpus: Raw Gem5 Running in Cycle:       151200000, Inst:        41527746
4140853825500: system.switch_cpus: Raw Gem5 Running in Cycle:       151300000, Inst:        41560909
4140903825500: system.switch_cpus: Raw Gem5 Running in Cycle:       151400000, Inst:        41594174
4140953825500: system.switch_cpus: Raw Gem5 Running in Cycle:       151500000, Inst:        41626254
4141003825500: system.switch_cpus: Raw Gem5 Running in Cycle:       151600000, Inst:        41658381
4141053825500: system.switch_cpus: Raw Gem5 Running in Cycle:       151700000, Inst:        41690675
4141103825500: system.switch_cpus: Raw Gem5 Running in Cycle:       151800000, Inst:        41724621
4141153825500: system.switch_cpus: Raw Gem5 Running in Cycle:       151900000, Inst:        41763550
4141203825500: system.switch_cpus: Raw Gem5 Running in Cycle:       152000000, Inst:        41800194
4141253825500: system.switch_cpus: Raw Gem5 Running in Cycle:       152100000, Inst:        41837389
4141303825500: system.switch_cpus: Raw Gem5 Running in Cycle:       152200000, Inst:        41873991
4141353825500: system.switch_cpus: Raw Gem5 Running in Cycle:       152300000, Inst:        41911320
4141403825500: system.switch_cpus: Raw Gem5 Running in Cycle:       152400000, Inst:        41949041
4141453825500: system.switch_cpus: Raw Gem5 Running in Cycle:       152500000, Inst:        41986859
4141503825500: system.switch_cpus: Raw Gem5 Running in Cycle:       152600000, Inst:        42023958
4141553825500: system.switch_cpus: Raw Gem5 Running in Cycle:       152700000, Inst:        42062548
4141603825500: system.switch_cpus: Raw Gem5 Running in Cycle:       152800000, Inst:        42100034
4141653825500: system.switch_cpus: Raw Gem5 Running in Cycle:       152900000, Inst:        42137521
4141703825500: system.switch_cpus: Raw Gem5 Running in Cycle:       153000000, Inst:        42174270
4141753825500: system.switch_cpus: Raw Gem5 Running in Cycle:       153100000, Inst:        42211904
4141803825500: system.switch_cpus: Raw Gem5 Running in Cycle:       153200000, Inst:        42249636
4141853825500: system.switch_cpus: Raw Gem5 Running in Cycle:       153300000, Inst:        42287086
4141903825500: system.switch_cpus: Raw Gem5 Running in Cycle:       153400000, Inst:        42324219
4141953825500: system.switch_cpus: Raw Gem5 Running in Cycle:       153500000, Inst:        42362065
4142003825500: system.switch_cpus: Raw Gem5 Running in Cycle:       153600000, Inst:        42399895
4142053825500: system.switch_cpus: Raw Gem5 Running in Cycle:       153700000, Inst:        42431163
4142103825500: system.switch_cpus: Raw Gem5 Running in Cycle:       153800000, Inst:        42457915
4142153825500: system.switch_cpus: Raw Gem5 Running in Cycle:       153900000, Inst:        42484572
4142203825500: system.switch_cpus: Raw Gem5 Running in Cycle:       154000000, Inst:        42511576
4142253825500: system.switch_cpus: Raw Gem5 Running in Cycle:       154100000, Inst:        42538716
4142303825500: system.switch_cpus: Raw Gem5 Running in Cycle:       154200000, Inst:        42566448
4142353825500: system.switch_cpus: Raw Gem5 Running in Cycle:       154300000, Inst:        42594524
4142403825500: system.switch_cpus: Raw Gem5 Running in Cycle:       154400000, Inst:        42622292
4142453825500: system.switch_cpus: Raw Gem5 Running in Cycle:       154500000, Inst:        42650076
4142503825500: system.switch_cpus: Raw Gem5 Running in Cycle:       154600000, Inst:        42677564
4142553825500: system.switch_cpus: Raw Gem5 Running in Cycle:       154700000, Inst:        42705532
4142603825500: system.switch_cpus: Raw Gem5 Running in Cycle:       154800000, Inst:        42733616
4142653825500: system.switch_cpus: Raw Gem5 Running in Cycle:       154900000, Inst:        42761735
4142703825500: system.switch_cpus: Raw Gem5 Running in Cycle:       155000000, Inst:        42790204
4142753825500: system.switch_cpus: Raw Gem5 Running in Cycle:       155100000, Inst:        42818684
4142803825500: system.switch_cpus: Raw Gem5 Running in Cycle:       155200000, Inst:        42847143
4142853825500: system.switch_cpus: Raw Gem5 Running in Cycle:       155300000, Inst:        42875612
4142903825500: system.switch_cpus: Raw Gem5 Running in Cycle:       155400000, Inst:        42904080
4142953825500: system.switch_cpus: Raw Gem5 Running in Cycle:       155500000, Inst:        42932540
4143003825500: system.switch_cpus: Raw Gem5 Running in Cycle:       155600000, Inst:        42961020
4143053825500: system.switch_cpus: Raw Gem5 Running in Cycle:       155700000, Inst:        43005131
4143103825500: system.switch_cpus: Raw Gem5 Running in Cycle:       155800000, Inst:        43046604
4143153825500: system.switch_cpus: Raw Gem5 Running in Cycle:       155900000, Inst:        43089231
4143203825500: system.switch_cpus: Raw Gem5 Running in Cycle:       156000000, Inst:        43131752
4143253825500: system.switch_cpus: Raw Gem5 Running in Cycle:       156100000, Inst:        43174220
4143303825500: system.switch_cpus: Raw Gem5 Running in Cycle:       156200000, Inst:        43217278
4143353825500: system.switch_cpus: Raw Gem5 Running in Cycle:       156300000, Inst:        43259570
4143403825500: system.switch_cpus: Raw Gem5 Running in Cycle:       156400000, Inst:        43301392
4143453825500: system.switch_cpus: Raw Gem5 Running in Cycle:       156500000, Inst:        43343565
4143503825500: system.switch_cpus: Raw Gem5 Running in Cycle:       156600000, Inst:        43387718
4143553825500: system.switch_cpus: Raw Gem5 Running in Cycle:       156700000, Inst:        43429524
4143603825500: system.switch_cpus: Raw Gem5 Running in Cycle:       156800000, Inst:        43472202
4143653825500: system.switch_cpus: Raw Gem5 Running in Cycle:       156900000, Inst:        43514511
4143703825500: system.switch_cpus: Raw Gem5 Running in Cycle:       157000000, Inst:        43556452
4143753825500: system.switch_cpus: Raw Gem5 Running in Cycle:       157100000, Inst:        43599155
4143803825500: system.switch_cpus: Raw Gem5 Running in Cycle:       157200000, Inst:        43641847
4143853825500: system.switch_cpus: Raw Gem5 Running in Cycle:       157300000, Inst:        43684012
4143903825500: system.switch_cpus: Raw Gem5 Running in Cycle:       157400000, Inst:        43724900
4143953825500: system.switch_cpus: Raw Gem5 Running in Cycle:       157500000, Inst:        43765123
4144003825500: system.switch_cpus: Raw Gem5 Running in Cycle:       157600000, Inst:        43805622
4144053825500: system.switch_cpus: Raw Gem5 Running in Cycle:       157700000, Inst:        43844539
4144103825500: system.switch_cpus: Raw Gem5 Running in Cycle:       157800000, Inst:        43882932
4144153825500: system.switch_cpus: Raw Gem5 Running in Cycle:       157900000, Inst:        43921299
4144203825500: system.switch_cpus: Raw Gem5 Running in Cycle:       158000000, Inst:        43958748
4144253825500: system.switch_cpus: Raw Gem5 Running in Cycle:       158100000, Inst:        43996954
4144303825500: system.switch_cpus: Raw Gem5 Running in Cycle:       158200000, Inst:        44034109
4144353825500: system.switch_cpus: Raw Gem5 Running in Cycle:       158300000, Inst:        44071698
4144403825500: system.switch_cpus: Raw Gem5 Running in Cycle:       158400000, Inst:        44108975
4144453825500: system.switch_cpus: Raw Gem5 Running in Cycle:       158500000, Inst:        44147817
4144503825500: system.switch_cpus: Raw Gem5 Running in Cycle:       158600000, Inst:        44185871
4144553825500: system.switch_cpus: Raw Gem5 Running in Cycle:       158700000, Inst:        44224318
4144603825500: system.switch_cpus: Raw Gem5 Running in Cycle:       158800000, Inst:        44263559
4144653825500: system.switch_cpus: Raw Gem5 Running in Cycle:       158900000, Inst:        44303014
4144703825500: system.switch_cpus: Raw Gem5 Running in Cycle:       159000000, Inst:        44341860
4144753825500: system.switch_cpus: Raw Gem5 Running in Cycle:       159100000, Inst:        44379927
4144803825500: system.switch_cpus: Raw Gem5 Running in Cycle:       159200000, Inst:        44417081
4144853825500: system.switch_cpus: Raw Gem5 Running in Cycle:       159300000, Inst:        44454773
4144903825500: system.switch_cpus: Raw Gem5 Running in Cycle:       159400000, Inst:        44489716
4144953825500: system.switch_cpus: Raw Gem5 Running in Cycle:       159500000, Inst:        44523207
4145003825500: system.switch_cpus: Raw Gem5 Running in Cycle:       159600000, Inst:        44556703
4145053825500: system.switch_cpus: Raw Gem5 Running in Cycle:       159700000, Inst:        44590274
4145103825500: system.switch_cpus: Raw Gem5 Running in Cycle:       159800000, Inst:        44622345
4145153825500: system.switch_cpus: Raw Gem5 Running in Cycle:       159900000, Inst:        44649808
4145203825500: system.switch_cpus: Raw Gem5 Running in Cycle:       160000000, Inst:        44676925
4145253825500: system.switch_cpus: Raw Gem5 Running in Cycle:       160100000, Inst:        44703582
4145303825500: system.switch_cpus: Raw Gem5 Running in Cycle:       160200000, Inst:        44730643
4145353825500: system.switch_cpus: Raw Gem5 Running in Cycle:       160300000, Inst:        44757872
4145403825500: system.switch_cpus: Raw Gem5 Running in Cycle:       160400000, Inst:        44784816
4145453825500: system.switch_cpus: Raw Gem5 Running in Cycle:       160500000, Inst:        44812542
4145503825500: system.switch_cpus: Raw Gem5 Running in Cycle:       160600000, Inst:        44840318
4145553825500: system.switch_cpus: Raw Gem5 Running in Cycle:       160700000, Inst:        44867806
4145603825500: system.switch_cpus: Raw Gem5 Running in Cycle:       160800000, Inst:        44895198
4145653825500: system.switch_cpus: Raw Gem5 Running in Cycle:       160900000, Inst:        44922490
4145703825500: system.switch_cpus: Raw Gem5 Running in Cycle:       161000000, Inst:        44949822
4145753825500: system.switch_cpus: Raw Gem5 Running in Cycle:       161100000, Inst:        44977202
4145803825500: system.switch_cpus: Raw Gem5 Running in Cycle:       161200000, Inst:        45005328
4145853825500: system.switch_cpus: Raw Gem5 Running in Cycle:       161300000, Inst:        45033790
4145903825500: system.switch_cpus: Raw Gem5 Running in Cycle:       161400000, Inst:        45062269
4145953825500: system.switch_cpus: Raw Gem5 Running in Cycle:       161500000, Inst:        45090729
4146003825500: system.switch_cpus: Raw Gem5 Running in Cycle:       161600000, Inst:        45119198
4146053825500: system.switch_cpus: Raw Gem5 Running in Cycle:       161700000, Inst:        45147665
4146103825500: system.switch_cpus: Raw Gem5 Running in Cycle:       161800000, Inst:        45176126
4146153825500: system.switch_cpus: Raw Gem5 Running in Cycle:       161900000, Inst:        45204606
4146203825500: system.switch_cpus: Raw Gem5 Running in Cycle:       162000000, Inst:        45240363
4146253825500: system.switch_cpus: Raw Gem5 Running in Cycle:       162100000, Inst:        45283039
4146303825500: system.switch_cpus: Raw Gem5 Running in Cycle:       162200000, Inst:        45326398
4146353825500: system.switch_cpus: Raw Gem5 Running in Cycle:       162300000, Inst:        45368523
4146403825500: system.switch_cpus: Raw Gem5 Running in Cycle:       162400000, Inst:        45411045
4146453825500: system.switch_cpus: Raw Gem5 Running in Cycle:       162500000, Inst:        45453514
4146503825500: system.switch_cpus: Raw Gem5 Running in Cycle:       162600000, Inst:        45496000
4146553825500: system.switch_cpus: Raw Gem5 Running in Cycle:       162700000, Inst:        45537813
4146603825500: system.switch_cpus: Raw Gem5 Running in Cycle:       162800000, Inst:        45579896
4146653825500: system.switch_cpus: Raw Gem5 Running in Cycle:       162900000, Inst:        45622638
4146703825500: system.switch_cpus: Raw Gem5 Running in Cycle:       163000000, Inst:        45664786
4146753825500: system.switch_cpus: Raw Gem5 Running in Cycle:       163100000, Inst:        45707195
4146803825500: system.switch_cpus: Raw Gem5 Running in Cycle:       163200000, Inst:        45750598
4146853825500: system.switch_cpus: Raw Gem5 Running in Cycle:       163300000, Inst:        45793360
4146903825500: system.switch_cpus: Raw Gem5 Running in Cycle:       163400000, Inst:        45835353
4146953825500: system.switch_cpus: Raw Gem5 Running in Cycle:       163500000, Inst:        45878107
4147003825500: system.switch_cpus: Raw Gem5 Running in Cycle:       163600000, Inst:        45920565
4147053825500: system.switch_cpus: Raw Gem5 Running in Cycle:       163700000, Inst:        45954338
4147103825500: system.switch_cpus: Raw Gem5 Running in Cycle:       163800000, Inst:        45982800
4147153825500: system.switch_cpus: Raw Gem5 Running in Cycle:       163900000, Inst:        46011269
4147203825500: system.switch_cpus: Raw Gem5 Running in Cycle:       164000000, Inst:        46039735
4147253825500: system.switch_cpus: Raw Gem5 Running in Cycle:       164100000, Inst:        46068208
4147303825500: system.switch_cpus: Raw Gem5 Running in Cycle:       164200000, Inst:        46096674
4147353825500: system.switch_cpus: Raw Gem5 Running in Cycle:       164300000, Inst:        46125136
4147403825500: system.switch_cpus: Raw Gem5 Running in Cycle:       164400000, Inst:        46153608
4147453825500: system.switch_cpus: Raw Gem5 Running in Cycle:       164500000, Inst:        46182082
4147511539500: system.switch_cpus: Raw Gem5 Running in Cycle:       164600000, Inst:        46227580
4147561539500: system.switch_cpus: Raw Gem5 Running in Cycle:       164700000, Inst:        46311310
4147611539500: system.switch_cpus: Raw Gem5 Running in Cycle:       164800000, Inst:        46397510
4147661539500: system.switch_cpus: Raw Gem5 Running in Cycle:       164900000, Inst:        46485048
4147711881000: system.switch_cpus: Raw Gem5 Running in Cycle:       165000000, Inst:        46617863
4147761881000: system.switch_cpus: Raw Gem5 Running in Cycle:       165100000, Inst:        46787355
4147812617000: system.switch_cpus: Raw Gem5 Running in Cycle:       165200000, Inst:        46943441
4147862617000: system.switch_cpus: Raw Gem5 Running in Cycle:       165300000, Inst:        47093167
4147912617000: system.switch_cpus: Raw Gem5 Running in Cycle:       165400000, Inst:        47241571
4147962617000: system.switch_cpus: Raw Gem5 Running in Cycle:       165500000, Inst:        47391584
4148013512500: system.switch_cpus: Raw Gem5 Running in Cycle:       165600000, Inst:        47577302
4148064054000: system.switch_cpus: Raw Gem5 Running in Cycle:       165700000, Inst:        47733554
4148114054000: system.switch_cpus: Raw Gem5 Running in Cycle:       165800000, Inst:        47884095
4148164054000: system.switch_cpus: Raw Gem5 Running in Cycle:       165900000, Inst:        48034643
4148216881500: system.switch_cpus: Raw Gem5 Running in Cycle:       166000000, Inst:        48182214
end time:(year-mon-day hour-minute-second)19-03-30 23-29-43
