
---------- Begin Simulation Statistics ----------
final_tick                               1460168147000                       # Number of ticks from beginning of simulation (restored from checkpoints and never reset)
host_inst_rate                                 356377                       # Simulator instruction rate (inst/s)
host_mem_usage                                8532104                       # Number of bytes of host memory used
host_op_rate                                   356377                       # Simulator op (including micro ops) rate (op/s)
host_seconds                                   280.60                       # Real time elapsed on the host
host_tick_rate                               55958377                       # Simulator tick rate (ticks/s)
sim_freq                                 1000000000000                       # Frequency of simulated ticks
sim_insts                                   100000021                       # Number of instructions simulated
sim_ops                                     100000021                       # Number of ops (including micro ops) simulated
sim_seconds                                  0.015702                       # Number of seconds simulated
sim_ticks                                 15702036500                       # Number of ticks simulated
system.clk_domain.clock                          1000                       # Clock period in ticks
system.cpu.Branches                                 1                       # Number of branches fetched
system.cpu.committedInsts                          20                       # Number of instructions committed
system.cpu.committedOps                            20                       # Number of ops (including micro ops) committed
system.cpu.dcache.ReadReq_accesses::.cpu.data            6                       # number of ReadReq accesses(hits+misses)
system.cpu.dcache.ReadReq_accesses::.switch_cpus.data     23832310                       # number of ReadReq accesses(hits+misses)
system.cpu.dcache.ReadReq_accesses::total     23832316                       # number of ReadReq accesses(hits+misses)
system.cpu.dcache.ReadReq_avg_miss_latency::.switch_cpus.data 32213.422819                       # average ReadReq miss latency
system.cpu.dcache.ReadReq_avg_miss_latency::total 32212.747216                       # average ReadReq miss latency
system.cpu.dcache.ReadReq_avg_mshr_miss_latency::.switch_cpus.data 25058.320294                       # average ReadReq mshr miss latency
system.cpu.dcache.ReadReq_avg_mshr_miss_latency::total 25058.320294                       # average ReadReq mshr miss latency
system.cpu.dcache.ReadReq_hits::.cpu.data            4                       # number of ReadReq hits
system.cpu.dcache.ReadReq_hits::.switch_cpus.data     23736950                       # number of ReadReq hits
system.cpu.dcache.ReadReq_hits::total        23736954                       # number of ReadReq hits
system.cpu.dcache.ReadReq_miss_latency::.switch_cpus.data   3071872000                       # number of ReadReq miss cycles
system.cpu.dcache.ReadReq_miss_latency::total   3071872000                       # number of ReadReq miss cycles
system.cpu.dcache.ReadReq_miss_rate::.cpu.data     0.333333                       # miss rate for ReadReq accesses
system.cpu.dcache.ReadReq_miss_rate::.switch_cpus.data     0.004001                       # miss rate for ReadReq accesses
system.cpu.dcache.ReadReq_miss_rate::total     0.004001                       # miss rate for ReadReq accesses
system.cpu.dcache.ReadReq_misses::.cpu.data            2                       # number of ReadReq misses
system.cpu.dcache.ReadReq_misses::.switch_cpus.data        95360                       # number of ReadReq misses
system.cpu.dcache.ReadReq_misses::total         95362                       # number of ReadReq misses
system.cpu.dcache.ReadReq_mshr_hits::.switch_cpus.data        16751                       # number of ReadReq MSHR hits
system.cpu.dcache.ReadReq_mshr_hits::total        16751                       # number of ReadReq MSHR hits
system.cpu.dcache.ReadReq_mshr_miss_latency::.switch_cpus.data   1969809500                       # number of ReadReq MSHR miss cycles
system.cpu.dcache.ReadReq_mshr_miss_latency::total   1969809500                       # number of ReadReq MSHR miss cycles
system.cpu.dcache.ReadReq_mshr_miss_rate::.switch_cpus.data     0.003298                       # mshr miss rate for ReadReq accesses
system.cpu.dcache.ReadReq_mshr_miss_rate::total     0.003298                       # mshr miss rate for ReadReq accesses
system.cpu.dcache.ReadReq_mshr_misses::.switch_cpus.data        78609                       # number of ReadReq MSHR misses
system.cpu.dcache.ReadReq_mshr_misses::total        78609                       # number of ReadReq MSHR misses
system.cpu.dcache.WriteReq_accesses::.switch_cpus.data      3780963                       # number of WriteReq accesses(hits+misses)
system.cpu.dcache.WriteReq_accesses::total      3780963                       # number of WriteReq accesses(hits+misses)
system.cpu.dcache.WriteReq_avg_miss_latency::.switch_cpus.data 13195.136312                       # average WriteReq miss latency
system.cpu.dcache.WriteReq_avg_miss_latency::total 13195.136312                       # average WriteReq miss latency
system.cpu.dcache.WriteReq_avg_mshr_miss_latency::.switch_cpus.data 13704.208756                       # average WriteReq mshr miss latency
system.cpu.dcache.WriteReq_avg_mshr_miss_latency::total 13704.208756                       # average WriteReq mshr miss latency
system.cpu.dcache.WriteReq_hits::.switch_cpus.data      3754575                       # number of WriteReq hits
system.cpu.dcache.WriteReq_hits::total        3754575                       # number of WriteReq hits
system.cpu.dcache.WriteReq_miss_latency::.switch_cpus.data    348193257                       # number of WriteReq miss cycles
system.cpu.dcache.WriteReq_miss_latency::total    348193257                       # number of WriteReq miss cycles
system.cpu.dcache.WriteReq_miss_rate::.switch_cpus.data     0.006979                       # miss rate for WriteReq accesses
system.cpu.dcache.WriteReq_miss_rate::total     0.006979                       # miss rate for WriteReq accesses
system.cpu.dcache.WriteReq_misses::.switch_cpus.data        26388                       # number of WriteReq misses
system.cpu.dcache.WriteReq_misses::total        26388                       # number of WriteReq misses
system.cpu.dcache.WriteReq_mshr_hits::.switch_cpus.data        13574                       # number of WriteReq MSHR hits
system.cpu.dcache.WriteReq_mshr_hits::total        13574                       # number of WriteReq MSHR hits
system.cpu.dcache.WriteReq_mshr_miss_latency::.switch_cpus.data    175605731                       # number of WriteReq MSHR miss cycles
system.cpu.dcache.WriteReq_mshr_miss_latency::total    175605731                       # number of WriteReq MSHR miss cycles
system.cpu.dcache.WriteReq_mshr_miss_rate::.switch_cpus.data     0.003389                       # mshr miss rate for WriteReq accesses
system.cpu.dcache.WriteReq_mshr_miss_rate::total     0.003389                       # mshr miss rate for WriteReq accesses
system.cpu.dcache.WriteReq_mshr_misses::.switch_cpus.data        12814                       # number of WriteReq MSHR misses
system.cpu.dcache.WriteReq_mshr_misses::total        12814                       # number of WriteReq MSHR misses
system.cpu.dcache.avg_blocked_cycles::no_mshrs     7.673700                       # average number of cycles each access was blocked
system.cpu.dcache.avg_blocked_cycles::no_targets          nan                       # average number of cycles each access was blocked
system.cpu.dcache.blocked::no_mshrs             12133                       # number of cycles access was blocked
system.cpu.dcache.blocked::no_targets               0                       # number of cycles access was blocked
system.cpu.dcache.blocked_cycles::no_mshrs        93105                       # number of cycles access was blocked
system.cpu.dcache.blocked_cycles::no_targets            0                       # number of cycles access was blocked
system.cpu.dcache.demand_accesses::.cpu.data            6                       # number of demand (read+write) accesses
system.cpu.dcache.demand_accesses::.switch_cpus.data     27613273                       # number of demand (read+write) accesses
system.cpu.dcache.demand_accesses::total     27613279                       # number of demand (read+write) accesses
system.cpu.dcache.demand_avg_miss_latency::.switch_cpus.data 28091.346527                       # average overall miss latency
system.cpu.dcache.demand_avg_miss_latency::total 28090.885068                       # average overall miss latency
system.cpu.dcache.demand_avg_mshr_miss_latency::.switch_cpus.data 23466.909104                       # average overall mshr miss latency
system.cpu.dcache.demand_avg_mshr_miss_latency::total 23466.909104                       # average overall mshr miss latency
system.cpu.dcache.demand_hits::.cpu.data            4                       # number of demand (read+write) hits
system.cpu.dcache.demand_hits::.switch_cpus.data     27491525                       # number of demand (read+write) hits
system.cpu.dcache.demand_hits::total         27491529                       # number of demand (read+write) hits
system.cpu.dcache.demand_miss_latency::.switch_cpus.data   3420065257                       # number of demand (read+write) miss cycles
system.cpu.dcache.demand_miss_latency::total   3420065257                       # number of demand (read+write) miss cycles
system.cpu.dcache.demand_miss_rate::.cpu.data     0.333333                       # miss rate for demand accesses
system.cpu.dcache.demand_miss_rate::.switch_cpus.data     0.004409                       # miss rate for demand accesses
system.cpu.dcache.demand_miss_rate::total     0.004409                       # miss rate for demand accesses
system.cpu.dcache.demand_misses::.cpu.data            2                       # number of demand (read+write) misses
system.cpu.dcache.demand_misses::.switch_cpus.data       121748                       # number of demand (read+write) misses
system.cpu.dcache.demand_misses::total         121750                       # number of demand (read+write) misses
system.cpu.dcache.demand_mshr_hits::.switch_cpus.data        30325                       # number of demand (read+write) MSHR hits
system.cpu.dcache.demand_mshr_hits::total        30325                       # number of demand (read+write) MSHR hits
system.cpu.dcache.demand_mshr_miss_latency::.switch_cpus.data   2145415231                       # number of demand (read+write) MSHR miss cycles
system.cpu.dcache.demand_mshr_miss_latency::total   2145415231                       # number of demand (read+write) MSHR miss cycles
system.cpu.dcache.demand_mshr_miss_rate::.switch_cpus.data     0.003311                       # mshr miss rate for demand accesses
system.cpu.dcache.demand_mshr_miss_rate::total     0.003311                       # mshr miss rate for demand accesses
system.cpu.dcache.demand_mshr_misses::.switch_cpus.data        91423                       # number of demand (read+write) MSHR misses
system.cpu.dcache.demand_mshr_misses::total        91423                       # number of demand (read+write) MSHR misses
system.cpu.dcache.overall_accesses::.cpu.data            6                       # number of overall (read+write) accesses
system.cpu.dcache.overall_accesses::.switch_cpus.data     27613273                       # number of overall (read+write) accesses
system.cpu.dcache.overall_accesses::total     27613279                       # number of overall (read+write) accesses
system.cpu.dcache.overall_avg_miss_latency::.switch_cpus.data 28091.346527                       # average overall miss latency
system.cpu.dcache.overall_avg_miss_latency::total 28090.885068                       # average overall miss latency
system.cpu.dcache.overall_avg_mshr_miss_latency::.switch_cpus.data 23466.909104                       # average overall mshr miss latency
system.cpu.dcache.overall_avg_mshr_miss_latency::total 23466.909104                       # average overall mshr miss latency
system.cpu.dcache.overall_hits::.cpu.data            4                       # number of overall hits
system.cpu.dcache.overall_hits::.switch_cpus.data     27491525                       # number of overall hits
system.cpu.dcache.overall_hits::total        27491529                       # number of overall hits
system.cpu.dcache.overall_miss_latency::.switch_cpus.data   3420065257                       # number of overall miss cycles
system.cpu.dcache.overall_miss_latency::total   3420065257                       # number of overall miss cycles
system.cpu.dcache.overall_miss_rate::.cpu.data     0.333333                       # miss rate for overall accesses
system.cpu.dcache.overall_miss_rate::.switch_cpus.data     0.004409                       # miss rate for overall accesses
system.cpu.dcache.overall_miss_rate::total     0.004409                       # miss rate for overall accesses
system.cpu.dcache.overall_misses::.cpu.data            2                       # number of overall misses
system.cpu.dcache.overall_misses::.switch_cpus.data       121748                       # number of overall misses
system.cpu.dcache.overall_misses::total        121750                       # number of overall misses
system.cpu.dcache.overall_mshr_hits::.switch_cpus.data        30325                       # number of overall MSHR hits
system.cpu.dcache.overall_mshr_hits::total        30325                       # number of overall MSHR hits
system.cpu.dcache.overall_mshr_miss_latency::.switch_cpus.data   2145415231                       # number of overall MSHR miss cycles
system.cpu.dcache.overall_mshr_miss_latency::total   2145415231                       # number of overall MSHR miss cycles
system.cpu.dcache.overall_mshr_miss_rate::.switch_cpus.data     0.003311                       # mshr miss rate for overall accesses
system.cpu.dcache.overall_mshr_miss_rate::total     0.003311                       # mshr miss rate for overall accesses
system.cpu.dcache.overall_mshr_misses::.switch_cpus.data        91423                       # number of overall MSHR misses
system.cpu.dcache.overall_mshr_misses::total        91423                       # number of overall MSHR misses
system.cpu.dcache.pwrStateResidencyTicks::UNDEFINED 1460168147000                       # Cumulative time (in ticks) in various power states
system.cpu.dcache.replacements                  90913                       # number of replacements
system.cpu.dcache.tags.age_task_id_blocks_1024::0           67                       # Occupied blocks per task id
system.cpu.dcache.tags.age_task_id_blocks_1024::1           48                       # Occupied blocks per task id
system.cpu.dcache.tags.age_task_id_blocks_1024::2          395                       # Occupied blocks per task id
system.cpu.dcache.tags.age_task_id_blocks_1024::4            2                       # Occupied blocks per task id
system.cpu.dcache.tags.avg_refs            301.700345                       # Average number of references to valid blocks.
system.cpu.dcache.tags.data_accesses        220997657                       # Number of data accesses
system.cpu.dcache.tags.occ_blocks::.cpu.data     0.035680                       # Average occupied blocks per requestor
system.cpu.dcache.tags.occ_blocks::.switch_cpus.data   509.998447                       # Average occupied blocks per requestor
system.cpu.dcache.tags.occ_percent::.cpu.data     0.000070                       # Average percentage of cache occupancy
system.cpu.dcache.tags.occ_percent::.switch_cpus.data     0.996091                       # Average percentage of cache occupancy
system.cpu.dcache.tags.occ_percent::total     0.996160                       # Average percentage of cache occupancy
system.cpu.dcache.tags.occ_task_id_blocks::1024          512                       # Occupied blocks per task id
system.cpu.dcache.tags.occ_task_id_percent::1024            1                       # Percentage of cache occupancy per task id
system.cpu.dcache.tags.pwrStateResidencyTicks::UNDEFINED 1460168147000                       # Cumulative time (in ticks) in various power states
system.cpu.dcache.tags.sampled_refs             91425                       # Sample count of references to valid blocks.
system.cpu.dcache.tags.tag_accesses         220997657                       # Number of tag accesses
system.cpu.dcache.tags.tagsinuse           510.034127                       # Cycle average of tags in use
system.cpu.dcache.tags.total_refs            27582954                       # Total number of references to valid blocks.
system.cpu.dcache.tags.warmup_cycle      1444466117000                       # Cycle when the warmup percentage was hit.
system.cpu.dcache.writebacks::.writebacks        70275                       # number of writebacks
system.cpu.dcache.writebacks::total             70275                       # number of writebacks
system.cpu.dtb.data_accesses                        6                       # DTB accesses
system.cpu.dtb.data_acv                             0                       # DTB access violations
system.cpu.dtb.data_hits                            6                       # DTB hits
system.cpu.dtb.data_misses                          0                       # DTB misses
system.cpu.dtb.fetch_accesses                       0                       # ITB accesses
system.cpu.dtb.fetch_acv                            0                       # ITB acv
system.cpu.dtb.fetch_hits                           0                       # ITB hits
system.cpu.dtb.fetch_misses                         0                       # ITB misses
system.cpu.dtb.pwrStateResidencyTicks::UNDEFINED 1460168147000                       # Cumulative time (in ticks) in various power states
system.cpu.dtb.read_accesses                        6                       # DTB read accesses
system.cpu.dtb.read_acv                             0                       # DTB read access violations
system.cpu.dtb.read_hits                            6                       # DTB read hits
system.cpu.dtb.read_misses                          0                       # DTB read misses
system.cpu.dtb.write_accesses                       0                       # DTB write accesses
system.cpu.dtb.write_acv                            0                       # DTB write access violations
system.cpu.dtb.write_hits                           0                       # DTB write hits
system.cpu.dtb.write_misses                         0                       # DTB write misses
system.cpu.icache.ReadReq_accesses::.cpu.inst           20                       # number of ReadReq accesses(hits+misses)
system.cpu.icache.ReadReq_accesses::.switch_cpus.inst      9806152                       # number of ReadReq accesses(hits+misses)
system.cpu.icache.ReadReq_accesses::total      9806172                       # number of ReadReq accesses(hits+misses)
system.cpu.icache.ReadReq_avg_miss_latency::.switch_cpus.inst 85328.537170                       # average ReadReq miss latency
system.cpu.icache.ReadReq_avg_miss_latency::total 84921.241050                       # average ReadReq miss latency
system.cpu.icache.ReadReq_avg_mshr_miss_latency::.switch_cpus.inst 91696.923077                       # average ReadReq mshr miss latency
system.cpu.icache.ReadReq_avg_mshr_miss_latency::total 91696.923077                       # average ReadReq mshr miss latency
system.cpu.icache.ReadReq_hits::.cpu.inst           18                       # number of ReadReq hits
system.cpu.icache.ReadReq_hits::.switch_cpus.inst      9805735                       # number of ReadReq hits
system.cpu.icache.ReadReq_hits::total         9805753                       # number of ReadReq hits
system.cpu.icache.ReadReq_miss_latency::.switch_cpus.inst     35582000                       # number of ReadReq miss cycles
system.cpu.icache.ReadReq_miss_latency::total     35582000                       # number of ReadReq miss cycles
system.cpu.icache.ReadReq_miss_rate::.cpu.inst     0.100000                       # miss rate for ReadReq accesses
system.cpu.icache.ReadReq_miss_rate::.switch_cpus.inst     0.000043                       # miss rate for ReadReq accesses
system.cpu.icache.ReadReq_miss_rate::total     0.000043                       # miss rate for ReadReq accesses
system.cpu.icache.ReadReq_misses::.cpu.inst            2                       # number of ReadReq misses
system.cpu.icache.ReadReq_misses::.switch_cpus.inst          417                       # number of ReadReq misses
system.cpu.icache.ReadReq_misses::total           419                       # number of ReadReq misses
system.cpu.icache.ReadReq_mshr_hits::.switch_cpus.inst           92                       # number of ReadReq MSHR hits
system.cpu.icache.ReadReq_mshr_hits::total           92                       # number of ReadReq MSHR hits
system.cpu.icache.ReadReq_mshr_miss_latency::.switch_cpus.inst     29801500                       # number of ReadReq MSHR miss cycles
system.cpu.icache.ReadReq_mshr_miss_latency::total     29801500                       # number of ReadReq MSHR miss cycles
system.cpu.icache.ReadReq_mshr_miss_rate::.switch_cpus.inst     0.000033                       # mshr miss rate for ReadReq accesses
system.cpu.icache.ReadReq_mshr_miss_rate::total     0.000033                       # mshr miss rate for ReadReq accesses
system.cpu.icache.ReadReq_mshr_misses::.switch_cpus.inst          325                       # number of ReadReq MSHR misses
system.cpu.icache.ReadReq_mshr_misses::total          325                       # number of ReadReq MSHR misses
system.cpu.icache.avg_blocked_cycles::no_mshrs   105.500000                       # average number of cycles each access was blocked
system.cpu.icache.avg_blocked_cycles::no_targets          nan                       # average number of cycles each access was blocked
system.cpu.icache.blocked::no_mshrs                 2                       # number of cycles access was blocked
system.cpu.icache.blocked::no_targets               0                       # number of cycles access was blocked
system.cpu.icache.blocked_cycles::no_mshrs          211                       # number of cycles access was blocked
system.cpu.icache.blocked_cycles::no_targets            0                       # number of cycles access was blocked
system.cpu.icache.demand_accesses::.cpu.inst           20                       # number of demand (read+write) accesses
system.cpu.icache.demand_accesses::.switch_cpus.inst      9806152                       # number of demand (read+write) accesses
system.cpu.icache.demand_accesses::total      9806172                       # number of demand (read+write) accesses
system.cpu.icache.demand_avg_miss_latency::.switch_cpus.inst 85328.537170                       # average overall miss latency
system.cpu.icache.demand_avg_miss_latency::total 84921.241050                       # average overall miss latency
system.cpu.icache.demand_avg_mshr_miss_latency::.switch_cpus.inst 91696.923077                       # average overall mshr miss latency
system.cpu.icache.demand_avg_mshr_miss_latency::total 91696.923077                       # average overall mshr miss latency
system.cpu.icache.demand_hits::.cpu.inst           18                       # number of demand (read+write) hits
system.cpu.icache.demand_hits::.switch_cpus.inst      9805735                       # number of demand (read+write) hits
system.cpu.icache.demand_hits::total          9805753                       # number of demand (read+write) hits
system.cpu.icache.demand_miss_latency::.switch_cpus.inst     35582000                       # number of demand (read+write) miss cycles
system.cpu.icache.demand_miss_latency::total     35582000                       # number of demand (read+write) miss cycles
system.cpu.icache.demand_miss_rate::.cpu.inst     0.100000                       # miss rate for demand accesses
system.cpu.icache.demand_miss_rate::.switch_cpus.inst     0.000043                       # miss rate for demand accesses
system.cpu.icache.demand_miss_rate::total     0.000043                       # miss rate for demand accesses
system.cpu.icache.demand_misses::.cpu.inst            2                       # number of demand (read+write) misses
system.cpu.icache.demand_misses::.switch_cpus.inst          417                       # number of demand (read+write) misses
system.cpu.icache.demand_misses::total            419                       # number of demand (read+write) misses
system.cpu.icache.demand_mshr_hits::.switch_cpus.inst           92                       # number of demand (read+write) MSHR hits
system.cpu.icache.demand_mshr_hits::total           92                       # number of demand (read+write) MSHR hits
system.cpu.icache.demand_mshr_miss_latency::.switch_cpus.inst     29801500                       # number of demand (read+write) MSHR miss cycles
system.cpu.icache.demand_mshr_miss_latency::total     29801500                       # number of demand (read+write) MSHR miss cycles
system.cpu.icache.demand_mshr_miss_rate::.switch_cpus.inst     0.000033                       # mshr miss rate for demand accesses
system.cpu.icache.demand_mshr_miss_rate::total     0.000033                       # mshr miss rate for demand accesses
system.cpu.icache.demand_mshr_misses::.switch_cpus.inst          325                       # number of demand (read+write) MSHR misses
system.cpu.icache.demand_mshr_misses::total          325                       # number of demand (read+write) MSHR misses
system.cpu.icache.overall_accesses::.cpu.inst           20                       # number of overall (read+write) accesses
system.cpu.icache.overall_accesses::.switch_cpus.inst      9806152                       # number of overall (read+write) accesses
system.cpu.icache.overall_accesses::total      9806172                       # number of overall (read+write) accesses
system.cpu.icache.overall_avg_miss_latency::.switch_cpus.inst 85328.537170                       # average overall miss latency
system.cpu.icache.overall_avg_miss_latency::total 84921.241050                       # average overall miss latency
system.cpu.icache.overall_avg_mshr_miss_latency::.switch_cpus.inst 91696.923077                       # average overall mshr miss latency
system.cpu.icache.overall_avg_mshr_miss_latency::total 91696.923077                       # average overall mshr miss latency
system.cpu.icache.overall_hits::.cpu.inst           18                       # number of overall hits
system.cpu.icache.overall_hits::.switch_cpus.inst      9805735                       # number of overall hits
system.cpu.icache.overall_hits::total         9805753                       # number of overall hits
system.cpu.icache.overall_miss_latency::.switch_cpus.inst     35582000                       # number of overall miss cycles
system.cpu.icache.overall_miss_latency::total     35582000                       # number of overall miss cycles
system.cpu.icache.overall_miss_rate::.cpu.inst     0.100000                       # miss rate for overall accesses
system.cpu.icache.overall_miss_rate::.switch_cpus.inst     0.000043                       # miss rate for overall accesses
system.cpu.icache.overall_miss_rate::total     0.000043                       # miss rate for overall accesses
system.cpu.icache.overall_misses::.cpu.inst            2                       # number of overall misses
system.cpu.icache.overall_misses::.switch_cpus.inst          417                       # number of overall misses
system.cpu.icache.overall_misses::total           419                       # number of overall misses
system.cpu.icache.overall_mshr_hits::.switch_cpus.inst           92                       # number of overall MSHR hits
system.cpu.icache.overall_mshr_hits::total           92                       # number of overall MSHR hits
system.cpu.icache.overall_mshr_miss_latency::.switch_cpus.inst     29801500                       # number of overall MSHR miss cycles
system.cpu.icache.overall_mshr_miss_latency::total     29801500                       # number of overall MSHR miss cycles
system.cpu.icache.overall_mshr_miss_rate::.switch_cpus.inst     0.000033                       # mshr miss rate for overall accesses
system.cpu.icache.overall_mshr_miss_rate::total     0.000033                       # mshr miss rate for overall accesses
system.cpu.icache.overall_mshr_misses::.switch_cpus.inst          325                       # number of overall MSHR misses
system.cpu.icache.overall_mshr_misses::total          325                       # number of overall MSHR misses
system.cpu.icache.pwrStateResidencyTicks::UNDEFINED 1460168147000                       # Cumulative time (in ticks) in various power states
system.cpu.icache.replacements                      2                       # number of replacements
system.cpu.icache.tags.age_task_id_blocks_1024::3            2                       # Occupied blocks per task id
system.cpu.icache.tags.age_task_id_blocks_1024::4          323                       # Occupied blocks per task id
system.cpu.icache.tags.avg_refs          29988.012232                       # Average number of references to valid blocks.
system.cpu.icache.tags.data_accesses         78449703                       # Number of data accesses
system.cpu.icache.tags.occ_blocks::.cpu.inst     2.000000                       # Average occupied blocks per requestor
system.cpu.icache.tags.occ_blocks::.switch_cpus.inst   319.080683                       # Average occupied blocks per requestor
system.cpu.icache.tags.occ_percent::.cpu.inst     0.003906                       # Average percentage of cache occupancy
system.cpu.icache.tags.occ_percent::.switch_cpus.inst     0.623204                       # Average percentage of cache occupancy
system.cpu.icache.tags.occ_percent::total     0.627111                       # Average percentage of cache occupancy
system.cpu.icache.tags.occ_task_id_blocks::1024          325                       # Occupied blocks per task id
system.cpu.icache.tags.occ_task_id_percent::1024     0.634766                       # Percentage of cache occupancy per task id
system.cpu.icache.tags.pwrStateResidencyTicks::UNDEFINED 1460168147000                       # Cumulative time (in ticks) in various power states
system.cpu.icache.tags.sampled_refs               327                       # Sample count of references to valid blocks.
system.cpu.icache.tags.tag_accesses          78449703                       # Number of tag accesses
system.cpu.icache.tags.tagsinuse           321.080683                       # Cycle average of tags in use
system.cpu.icache.tags.total_refs             9806080                       # Total number of references to valid blocks.
system.cpu.icache.tags.warmup_cycle      1444466111000                       # Cycle when the warmup percentage was hit.
system.cpu.icache.writebacks::.writebacks            2                       # number of writebacks
system.cpu.icache.writebacks::total                 2                       # number of writebacks
system.cpu.idle_fraction                            0                       # Percentage of idle cycles
system.cpu.itb.data_accesses                        0                       # DTB accesses
system.cpu.itb.data_acv                             0                       # DTB access violations
system.cpu.itb.data_hits                            0                       # DTB hits
system.cpu.itb.data_misses                          0                       # DTB misses
system.cpu.itb.fetch_accesses                      20                       # ITB accesses
system.cpu.itb.fetch_acv                            0                       # ITB acv
system.cpu.itb.fetch_hits                          20                       # ITB hits
system.cpu.itb.fetch_misses                         0                       # ITB misses
system.cpu.itb.pwrStateResidencyTicks::UNDEFINED 1460168147000                       # Cumulative time (in ticks) in various power states
system.cpu.itb.read_accesses                        0                       # DTB read accesses
system.cpu.itb.read_acv                             0                       # DTB read access violations
system.cpu.itb.read_hits                            0                       # DTB read hits
system.cpu.itb.read_misses                          0                       # DTB read misses
system.cpu.itb.write_accesses                       0                       # DTB write accesses
system.cpu.itb.write_acv                            0                       # DTB write access violations
system.cpu.itb.write_hits                           0                       # DTB write hits
system.cpu.itb.write_misses                         0                       # DTB write misses
system.cpu.not_idle_fraction                        1                       # Percentage of non-idle cycles
system.cpu.numCycles                               20                       # number of cpu cycles simulated
system.cpu.numPwrStateTransitions                   1                       # Number of power state transitions
system.cpu.numWorkItemsCompleted                    0                       # number of work items this cpu completed
system.cpu.numWorkItemsStarted                      0                       # number of work items this cpu started
system.cpu.num_busy_cycles                         20                       # Number of busy cycles
system.cpu.num_conditional_control_insts            1                       # number of instructions that are conditional controls
system.cpu.num_fp_alu_accesses                     15                       # Number of float alu accesses
system.cpu.num_fp_insts                            15                       # number of float instructions
system.cpu.num_fp_register_reads                   18                       # number of times the floating registers were read
system.cpu.num_fp_register_writes                  15                       # number of times the floating registers were written
system.cpu.num_func_calls                           0                       # number of times a function call or return occured
system.cpu.num_idle_cycles                          0                       # Number of idle cycles
system.cpu.num_int_alu_accesses                    11                       # Number of integer alu accesses
system.cpu.num_int_insts                           11                       # number of integer instructions
system.cpu.num_int_register_reads                  12                       # number of times the integer registers were read
system.cpu.num_int_register_writes                  4                       # number of times the integer registers were written
system.cpu.num_load_insts                           6                       # Number of load instructions
system.cpu.num_mem_refs                             6                       # number of memory refs
system.cpu.num_store_insts                          0                       # Number of store instructions
system.cpu.num_vec_alu_accesses                     0                       # Number of vector alu accesses
system.cpu.num_vec_insts                            0                       # number of vector instructions
system.cpu.num_vec_register_reads                   0                       # number of times the vector registers were read
system.cpu.num_vec_register_writes                  0                       # number of times the vector registers were written
system.cpu.op_class::No_OpClass                     0      0.00%      0.00% # Class of executed instruction
system.cpu.op_class::IntAlu                         5     25.00%     25.00% # Class of executed instruction
system.cpu.op_class::IntMult                        0      0.00%     25.00% # Class of executed instruction
system.cpu.op_class::IntDiv                         0      0.00%     25.00% # Class of executed instruction
system.cpu.op_class::FloatAdd                       3     15.00%     40.00% # Class of executed instruction
system.cpu.op_class::FloatCmp                       0      0.00%     40.00% # Class of executed instruction
system.cpu.op_class::FloatCvt                       0      0.00%     40.00% # Class of executed instruction
system.cpu.op_class::FloatMult                      6     30.00%     70.00% # Class of executed instruction
system.cpu.op_class::FloatMultAcc                   0      0.00%     70.00% # Class of executed instruction
system.cpu.op_class::FloatDiv                       0      0.00%     70.00% # Class of executed instruction
system.cpu.op_class::FloatMisc                      0      0.00%     70.00% # Class of executed instruction
system.cpu.op_class::FloatSqrt                      0      0.00%     70.00% # Class of executed instruction
system.cpu.op_class::SimdAdd                        0      0.00%     70.00% # Class of executed instruction
system.cpu.op_class::SimdAddAcc                     0      0.00%     70.00% # Class of executed instruction
system.cpu.op_class::SimdAlu                        0      0.00%     70.00% # Class of executed instruction
system.cpu.op_class::SimdCmp                        0      0.00%     70.00% # Class of executed instruction
system.cpu.op_class::SimdCvt                        0      0.00%     70.00% # Class of executed instruction
system.cpu.op_class::SimdMisc                       0      0.00%     70.00% # Class of executed instruction
system.cpu.op_class::SimdMult                       0      0.00%     70.00% # Class of executed instruction
system.cpu.op_class::SimdMultAcc                    0      0.00%     70.00% # Class of executed instruction
system.cpu.op_class::SimdShift                      0      0.00%     70.00% # Class of executed instruction
system.cpu.op_class::SimdShiftAcc                   0      0.00%     70.00% # Class of executed instruction
system.cpu.op_class::SimdSqrt                       0      0.00%     70.00% # Class of executed instruction
system.cpu.op_class::SimdFloatAdd                   0      0.00%     70.00% # Class of executed instruction
system.cpu.op_class::SimdFloatAlu                   0      0.00%     70.00% # Class of executed instruction
system.cpu.op_class::SimdFloatCmp                   0      0.00%     70.00% # Class of executed instruction
system.cpu.op_class::SimdFloatCvt                   0      0.00%     70.00% # Class of executed instruction
system.cpu.op_class::SimdFloatDiv                   0      0.00%     70.00% # Class of executed instruction
system.cpu.op_class::SimdFloatMisc                  0      0.00%     70.00% # Class of executed instruction
system.cpu.op_class::SimdFloatMult                  0      0.00%     70.00% # Class of executed instruction
system.cpu.op_class::SimdFloatMultAcc               0      0.00%     70.00% # Class of executed instruction
system.cpu.op_class::SimdFloatSqrt                  0      0.00%     70.00% # Class of executed instruction
system.cpu.op_class::SimdAes                        0      0.00%     70.00% # Class of executed instruction
system.cpu.op_class::SimdAesMix                     0      0.00%     70.00% # Class of executed instruction
system.cpu.op_class::SimdSha1Hash                   0      0.00%     70.00% # Class of executed instruction
system.cpu.op_class::SimdSha1Hash2                  0      0.00%     70.00% # Class of executed instruction
system.cpu.op_class::SimdSha256Hash                 0      0.00%     70.00% # Class of executed instruction
system.cpu.op_class::SimdSha256Hash2                0      0.00%     70.00% # Class of executed instruction
system.cpu.op_class::SimdShaSigma2                  0      0.00%     70.00% # Class of executed instruction
system.cpu.op_class::SimdShaSigma3                  0      0.00%     70.00% # Class of executed instruction
system.cpu.op_class::MemRead                        0      0.00%     70.00% # Class of executed instruction
system.cpu.op_class::MemWrite                       0      0.00%     70.00% # Class of executed instruction
system.cpu.op_class::FloatMemRead                   6     30.00%    100.00% # Class of executed instruction
system.cpu.op_class::FloatMemWrite                  0      0.00%    100.00% # Class of executed instruction
system.cpu.op_class::IprAccess                      0      0.00%    100.00% # Class of executed instruction
system.cpu.op_class::InstPrefetch                   0      0.00%    100.00% # Class of executed instruction
system.cpu.op_class::total                         20                       # Class of executed instruction
system.cpu.pwrStateResidencyTicks::ON           10000                       # Cumulative time (in ticks) in various power states
system.cpu.pwrStateResidencyTicks::OFF    15702026500                       # Cumulative time (in ticks) in various power states
system.cpu.workload.numSyscalls                     0                       # Number of system calls
system.cpu_clk_domain.clock                       500                       # Clock period in ticks
system.cpu_voltage_domain.voltage                   1                       # Voltage in Volts
system.l2.InvalidateReq_accesses::.switch_cpus.data          197                       # number of InvalidateReq accesses(hits+misses)
system.l2.InvalidateReq_accesses::total           197                       # number of InvalidateReq accesses(hits+misses)
system.l2.InvalidateReq_hits::.switch_cpus.data          197                       # number of InvalidateReq hits
system.l2.InvalidateReq_hits::total               197                       # number of InvalidateReq hits
system.l2.ReadCleanReq_accesses::.cpu.inst            2                       # number of ReadCleanReq accesses(hits+misses)
system.l2.ReadCleanReq_accesses::.switch_cpus.inst          325                       # number of ReadCleanReq accesses(hits+misses)
system.l2.ReadCleanReq_accesses::total            327                       # number of ReadCleanReq accesses(hits+misses)
system.l2.ReadCleanReq_avg_miss_latency::.switch_cpus.inst 90189.230769                       # average ReadCleanReq miss latency
system.l2.ReadCleanReq_avg_miss_latency::total 89637.614679                       # average ReadCleanReq miss latency
system.l2.ReadCleanReq_avg_mshr_miss_latency::.switch_cpus.inst 80189.230769                       # average ReadCleanReq mshr miss latency
system.l2.ReadCleanReq_avg_mshr_miss_latency::total 80189.230769                       # average ReadCleanReq mshr miss latency
system.l2.ReadCleanReq_miss_latency::.switch_cpus.inst     29311500                       # number of ReadCleanReq miss cycles
system.l2.ReadCleanReq_miss_latency::total     29311500                       # number of ReadCleanReq miss cycles
system.l2.ReadCleanReq_miss_rate::.cpu.inst            1                       # miss rate for ReadCleanReq accesses
system.l2.ReadCleanReq_miss_rate::.switch_cpus.inst            1                       # miss rate for ReadCleanReq accesses
system.l2.ReadCleanReq_miss_rate::total             1                       # miss rate for ReadCleanReq accesses
system.l2.ReadCleanReq_misses::.cpu.inst            2                       # number of ReadCleanReq misses
system.l2.ReadCleanReq_misses::.switch_cpus.inst          325                       # number of ReadCleanReq misses
system.l2.ReadCleanReq_misses::total              327                       # number of ReadCleanReq misses
system.l2.ReadCleanReq_mshr_miss_latency::.switch_cpus.inst     26061500                       # number of ReadCleanReq MSHR miss cycles
system.l2.ReadCleanReq_mshr_miss_latency::total     26061500                       # number of ReadCleanReq MSHR miss cycles
system.l2.ReadCleanReq_mshr_miss_rate::.switch_cpus.inst            1                       # mshr miss rate for ReadCleanReq accesses
system.l2.ReadCleanReq_mshr_miss_rate::total     0.993884                       # mshr miss rate for ReadCleanReq accesses
system.l2.ReadCleanReq_mshr_misses::.switch_cpus.inst          325                       # number of ReadCleanReq MSHR misses
system.l2.ReadCleanReq_mshr_misses::total          325                       # number of ReadCleanReq MSHR misses
system.l2.ReadExReq_accesses::.switch_cpus.data        12617                       # number of ReadExReq accesses(hits+misses)
system.l2.ReadExReq_accesses::total             12617                       # number of ReadExReq accesses(hits+misses)
system.l2.ReadExReq_avg_miss_latency::.switch_cpus.data 82032.608696                       # average ReadExReq miss latency
system.l2.ReadExReq_avg_miss_latency::total 82032.608696                       # average ReadExReq miss latency
system.l2.ReadExReq_avg_mshr_miss_latency::.switch_cpus.data 72032.608696                       # average ReadExReq mshr miss latency
system.l2.ReadExReq_avg_mshr_miss_latency::total 72032.608696                       # average ReadExReq mshr miss latency
system.l2.ReadExReq_hits::.switch_cpus.data        12433                       # number of ReadExReq hits
system.l2.ReadExReq_hits::total                 12433                       # number of ReadExReq hits
system.l2.ReadExReq_miss_latency::.switch_cpus.data     15094000                       # number of ReadExReq miss cycles
system.l2.ReadExReq_miss_latency::total      15094000                       # number of ReadExReq miss cycles
system.l2.ReadExReq_miss_rate::.switch_cpus.data     0.014583                       # miss rate for ReadExReq accesses
system.l2.ReadExReq_miss_rate::total         0.014583                       # miss rate for ReadExReq accesses
system.l2.ReadExReq_misses::.switch_cpus.data          184                       # number of ReadExReq misses
system.l2.ReadExReq_misses::total                 184                       # number of ReadExReq misses
system.l2.ReadExReq_mshr_miss_latency::.switch_cpus.data     13254000                       # number of ReadExReq MSHR miss cycles
system.l2.ReadExReq_mshr_miss_latency::total     13254000                       # number of ReadExReq MSHR miss cycles
system.l2.ReadExReq_mshr_miss_rate::.switch_cpus.data     0.014583                       # mshr miss rate for ReadExReq accesses
system.l2.ReadExReq_mshr_miss_rate::total     0.014583                       # mshr miss rate for ReadExReq accesses
system.l2.ReadExReq_mshr_misses::.switch_cpus.data          184                       # number of ReadExReq MSHR misses
system.l2.ReadExReq_mshr_misses::total            184                       # number of ReadExReq MSHR misses
system.l2.ReadSharedReq_accesses::.cpu.data            2                       # number of ReadSharedReq accesses(hits+misses)
system.l2.ReadSharedReq_accesses::.switch_cpus.data        78609                       # number of ReadSharedReq accesses(hits+misses)
system.l2.ReadSharedReq_accesses::total         78611                       # number of ReadSharedReq accesses(hits+misses)
system.l2.ReadSharedReq_avg_miss_latency::.switch_cpus.data 109317.262078                       # average ReadSharedReq miss latency
system.l2.ReadSharedReq_avg_miss_latency::total 109296.099119                       # average ReadSharedReq miss latency
system.l2.ReadSharedReq_avg_mshr_miss_latency::.switch_cpus.data 99317.262078                       # average ReadSharedReq mshr miss latency
system.l2.ReadSharedReq_avg_mshr_miss_latency::total 99317.262078                       # average ReadSharedReq mshr miss latency
system.l2.ReadSharedReq_hits::.switch_cpus.data        68280                       # number of ReadSharedReq hits
system.l2.ReadSharedReq_hits::total             68280                       # number of ReadSharedReq hits
system.l2.ReadSharedReq_miss_latency::.switch_cpus.data   1129138000                       # number of ReadSharedReq miss cycles
system.l2.ReadSharedReq_miss_latency::total   1129138000                       # number of ReadSharedReq miss cycles
system.l2.ReadSharedReq_miss_rate::.cpu.data            1                       # miss rate for ReadSharedReq accesses
system.l2.ReadSharedReq_miss_rate::.switch_cpus.data     0.131397                       # miss rate for ReadSharedReq accesses
system.l2.ReadSharedReq_miss_rate::total     0.131419                       # miss rate for ReadSharedReq accesses
system.l2.ReadSharedReq_misses::.cpu.data            2                       # number of ReadSharedReq misses
system.l2.ReadSharedReq_misses::.switch_cpus.data        10329                       # number of ReadSharedReq misses
system.l2.ReadSharedReq_misses::total           10331                       # number of ReadSharedReq misses
system.l2.ReadSharedReq_mshr_miss_latency::.switch_cpus.data   1025848000                       # number of ReadSharedReq MSHR miss cycles
system.l2.ReadSharedReq_mshr_miss_latency::total   1025848000                       # number of ReadSharedReq MSHR miss cycles
system.l2.ReadSharedReq_mshr_miss_rate::.switch_cpus.data     0.131397                       # mshr miss rate for ReadSharedReq accesses
system.l2.ReadSharedReq_mshr_miss_rate::total     0.131394                       # mshr miss rate for ReadSharedReq accesses
system.l2.ReadSharedReq_mshr_misses::.switch_cpus.data        10329                       # number of ReadSharedReq MSHR misses
system.l2.ReadSharedReq_mshr_misses::total        10329                       # number of ReadSharedReq MSHR misses
system.l2.WritebackClean_accesses::.writebacks            2                       # number of WritebackClean accesses(hits+misses)
system.l2.WritebackClean_accesses::total            2                       # number of WritebackClean accesses(hits+misses)
system.l2.WritebackClean_hits::.writebacks            2                       # number of WritebackClean hits
system.l2.WritebackClean_hits::total                2                       # number of WritebackClean hits
system.l2.WritebackDirty_accesses::.writebacks        70275                       # number of WritebackDirty accesses(hits+misses)
system.l2.WritebackDirty_accesses::total        70275                       # number of WritebackDirty accesses(hits+misses)
system.l2.WritebackDirty_hits::.writebacks        70275                       # number of WritebackDirty hits
system.l2.WritebackDirty_hits::total            70275                       # number of WritebackDirty hits
system.l2.avg_blocked_cycles::no_mshrs            nan                       # average number of cycles each access was blocked
system.l2.avg_blocked_cycles::no_targets          nan                       # average number of cycles each access was blocked
system.l2.blocked::no_mshrs                         0                       # number of cycles access was blocked
system.l2.blocked::no_targets                       0                       # number of cycles access was blocked
system.l2.blocked_cycles::no_mshrs                  0                       # number of cycles access was blocked
system.l2.blocked_cycles::no_targets                0                       # number of cycles access was blocked
system.l2.demand_accesses::.cpu.inst                2                       # number of demand (read+write) accesses
system.l2.demand_accesses::.cpu.data                2                       # number of demand (read+write) accesses
system.l2.demand_accesses::.switch_cpus.inst          325                       # number of demand (read+write) accesses
system.l2.demand_accesses::.switch_cpus.data        91226                       # number of demand (read+write) accesses
system.l2.demand_accesses::total                91555                       # number of demand (read+write) accesses
system.l2.demand_avg_miss_latency::.switch_cpus.inst 90189.230769                       # average overall miss latency
system.l2.demand_avg_miss_latency::.switch_cpus.data 108839.722249                       # average overall miss latency
system.l2.demand_avg_miss_latency::total 108240.499908                       # average overall miss latency
system.l2.demand_avg_mshr_miss_latency::.switch_cpus.inst 80189.230769                       # average overall mshr miss latency
system.l2.demand_avg_mshr_miss_latency::.switch_cpus.data 98839.722249                       # average overall mshr miss latency
system.l2.demand_avg_mshr_miss_latency::total 98280.448422                       # average overall mshr miss latency
system.l2.demand_hits::.switch_cpus.data        80713                       # number of demand (read+write) hits
system.l2.demand_hits::total                    80713                       # number of demand (read+write) hits
system.l2.demand_miss_latency::.switch_cpus.inst     29311500                       # number of demand (read+write) miss cycles
system.l2.demand_miss_latency::.switch_cpus.data   1144232000                       # number of demand (read+write) miss cycles
system.l2.demand_miss_latency::total       1173543500                       # number of demand (read+write) miss cycles
system.l2.demand_miss_rate::.cpu.inst               1                       # miss rate for demand accesses
system.l2.demand_miss_rate::.cpu.data               1                       # miss rate for demand accesses
system.l2.demand_miss_rate::.switch_cpus.inst            1                       # miss rate for demand accesses
system.l2.demand_miss_rate::.switch_cpus.data     0.115241                       # miss rate for demand accesses
system.l2.demand_miss_rate::total            0.118421                       # miss rate for demand accesses
system.l2.demand_misses::.cpu.inst                  2                       # number of demand (read+write) misses
system.l2.demand_misses::.cpu.data                  2                       # number of demand (read+write) misses
system.l2.demand_misses::.switch_cpus.inst          325                       # number of demand (read+write) misses
system.l2.demand_misses::.switch_cpus.data        10513                       # number of demand (read+write) misses
system.l2.demand_misses::total                  10842                       # number of demand (read+write) misses
system.l2.demand_mshr_miss_latency::.switch_cpus.inst     26061500                       # number of demand (read+write) MSHR miss cycles
system.l2.demand_mshr_miss_latency::.switch_cpus.data   1039102000                       # number of demand (read+write) MSHR miss cycles
system.l2.demand_mshr_miss_latency::total   1065163500                       # number of demand (read+write) MSHR miss cycles
system.l2.demand_mshr_miss_rate::.switch_cpus.inst            1                       # mshr miss rate for demand accesses
system.l2.demand_mshr_miss_rate::.switch_cpus.data     0.115241                       # mshr miss rate for demand accesses
system.l2.demand_mshr_miss_rate::total       0.118377                       # mshr miss rate for demand accesses
system.l2.demand_mshr_misses::.switch_cpus.inst          325                       # number of demand (read+write) MSHR misses
system.l2.demand_mshr_misses::.switch_cpus.data        10513                       # number of demand (read+write) MSHR misses
system.l2.demand_mshr_misses::total             10838                       # number of demand (read+write) MSHR misses
system.l2.overall_accesses::.cpu.inst               2                       # number of overall (read+write) accesses
system.l2.overall_accesses::.cpu.data               2                       # number of overall (read+write) accesses
system.l2.overall_accesses::.switch_cpus.inst          325                       # number of overall (read+write) accesses
system.l2.overall_accesses::.switch_cpus.data        91226                       # number of overall (read+write) accesses
system.l2.overall_accesses::total               91555                       # number of overall (read+write) accesses
system.l2.overall_avg_miss_latency::.switch_cpus.inst 90189.230769                       # average overall miss latency
system.l2.overall_avg_miss_latency::.switch_cpus.data 108839.722249                       # average overall miss latency
system.l2.overall_avg_miss_latency::total 108240.499908                       # average overall miss latency
system.l2.overall_avg_mshr_miss_latency::.switch_cpus.inst 80189.230769                       # average overall mshr miss latency
system.l2.overall_avg_mshr_miss_latency::.switch_cpus.data 98839.722249                       # average overall mshr miss latency
system.l2.overall_avg_mshr_miss_latency::total 98280.448422                       # average overall mshr miss latency
system.l2.overall_hits::.switch_cpus.data        80713                       # number of overall hits
system.l2.overall_hits::total                   80713                       # number of overall hits
system.l2.overall_miss_latency::.switch_cpus.inst     29311500                       # number of overall miss cycles
system.l2.overall_miss_latency::.switch_cpus.data   1144232000                       # number of overall miss cycles
system.l2.overall_miss_latency::total      1173543500                       # number of overall miss cycles
system.l2.overall_miss_rate::.cpu.inst              1                       # miss rate for overall accesses
system.l2.overall_miss_rate::.cpu.data              1                       # miss rate for overall accesses
system.l2.overall_miss_rate::.switch_cpus.inst            1                       # miss rate for overall accesses
system.l2.overall_miss_rate::.switch_cpus.data     0.115241                       # miss rate for overall accesses
system.l2.overall_miss_rate::total           0.118421                       # miss rate for overall accesses
system.l2.overall_misses::.cpu.inst                 2                       # number of overall misses
system.l2.overall_misses::.cpu.data                 2                       # number of overall misses
system.l2.overall_misses::.switch_cpus.inst          325                       # number of overall misses
system.l2.overall_misses::.switch_cpus.data        10513                       # number of overall misses
system.l2.overall_misses::total                 10842                       # number of overall misses
system.l2.overall_mshr_miss_latency::.switch_cpus.inst     26061500                       # number of overall MSHR miss cycles
system.l2.overall_mshr_miss_latency::.switch_cpus.data   1039102000                       # number of overall MSHR miss cycles
system.l2.overall_mshr_miss_latency::total   1065163500                       # number of overall MSHR miss cycles
system.l2.overall_mshr_miss_rate::.switch_cpus.inst            1                       # mshr miss rate for overall accesses
system.l2.overall_mshr_miss_rate::.switch_cpus.data     0.115241                       # mshr miss rate for overall accesses
system.l2.overall_mshr_miss_rate::total      0.118377                       # mshr miss rate for overall accesses
system.l2.overall_mshr_misses::.switch_cpus.inst          325                       # number of overall MSHR misses
system.l2.overall_mshr_misses::.switch_cpus.data        10513                       # number of overall MSHR misses
system.l2.overall_mshr_misses::total            10838                       # number of overall MSHR misses
system.l2.pwrStateResidencyTicks::UNDEFINED 1460168147000                       # Cumulative time (in ticks) in various power states
system.l2.replacements                              0                       # number of replacements
system.l2.tags.age_task_id_blocks_1024::1            3                       # Occupied blocks per task id
system.l2.tags.age_task_id_blocks_1024::2          437                       # Occupied blocks per task id
system.l2.tags.age_task_id_blocks_1024::3         5682                       # Occupied blocks per task id
system.l2.tags.age_task_id_blocks_1024::4         4719                       # Occupied blocks per task id
system.l2.tags.avg_refs                     16.548922                       # Average number of references to valid blocks.
system.l2.tags.data_accesses                  2933710                       # Number of data accesses
system.l2.tags.occ_blocks::.writebacks       2.788655                       # Average occupied blocks per requestor
system.l2.tags.occ_blocks::.cpu.inst         2.000000                       # Average occupied blocks per requestor
system.l2.tags.occ_blocks::.cpu.data         1.999999                       # Average occupied blocks per requestor
system.l2.tags.occ_blocks::.switch_cpus.inst   321.034870                       # Average occupied blocks per requestor
system.l2.tags.occ_blocks::.switch_cpus.data  5757.939563                       # Average occupied blocks per requestor
system.l2.tags.occ_percent::.writebacks      0.000085                       # Average percentage of cache occupancy
system.l2.tags.occ_percent::.cpu.inst        0.000061                       # Average percentage of cache occupancy
system.l2.tags.occ_percent::.cpu.data        0.000061                       # Average percentage of cache occupancy
system.l2.tags.occ_percent::.switch_cpus.inst     0.009797                       # Average percentage of cache occupancy
system.l2.tags.occ_percent::.switch_cpus.data     0.175718                       # Average percentage of cache occupancy
system.l2.tags.occ_percent::total            0.185723                       # Average percentage of cache occupancy
system.l2.tags.occ_task_id_blocks::1024         10841                       # Occupied blocks per task id
system.l2.tags.occ_task_id_percent::1024     0.330841                       # Percentage of cache occupancy per task id
system.l2.tags.pwrStateResidencyTicks::UNDEFINED 1460168147000                       # Cumulative time (in ticks) in various power states
system.l2.tags.sampled_refs                     11038                       # Sample count of references to valid blocks.
system.l2.tags.tag_accesses                   2933710                       # Number of tag accesses
system.l2.tags.tagsinuse                  6085.763087                       # Cycle average of tags in use
system.l2.tags.total_refs                      182667                       # Total number of references to valid blocks.
system.l2.tags.warmup_cycle              1444466111000                       # Cycle when the warmup percentage was hit.
system.mem_ctrls.avgBusLat                    5000.00                       # Average bus latency per DRAM burst
system.mem_ctrls.avgGap                    1445803.98                       # Average gap between requests
system.mem_ctrls.avgMemAccLat                57206.54                       # Average memory access latency per DRAM burst
system.mem_ctrls.avgPriority_.switch_cpus.inst::samples       325.00                       # Average QoS priority value for accepted requests
system.mem_ctrls.avgPriority_.switch_cpus.data::samples     10513.00                       # Average QoS priority value for accepted requests
system.mem_ctrls.avgQLat                     38456.54                       # Average queueing delay per DRAM burst
system.mem_ctrls.avgRdBW                        44.17                       # Average DRAM read bandwidth in MiByte/s
system.mem_ctrls.avgRdBWSys                     44.17                       # Average system read bandwidth in MiByte/s
system.mem_ctrls.avgRdQLen                       1.07                       # Average read queue length when enqueuing
system.mem_ctrls.avgWrBW                         0.00                       # Average achieved write bandwidth in MiByte/s
system.mem_ctrls.avgWrBWSys                      0.00                       # Average system write bandwidth in MiByte/s
system.mem_ctrls.avgWrQLen                       0.00                       # Average write queue length when enqueuing
system.mem_ctrls.busUtil                         0.35                       # Data bus utilization in percentage
system.mem_ctrls.busUtilRead                     0.35                       # Data bus utilization in percentage for reads
system.mem_ctrls.busUtilWrite                    0.00                       # Data bus utilization in percentage for writes
system.mem_ctrls.bw_inst_read::.cpu.inst         8152                       # Instruction read bandwidth from this memory (bytes/s)
system.mem_ctrls.bw_inst_read::.switch_cpus.inst      1324669                       # Instruction read bandwidth from this memory (bytes/s)
system.mem_ctrls.bw_inst_read::total          1332821                       # Instruction read bandwidth from this memory (bytes/s)
system.mem_ctrls.bw_read::.cpu.inst              8152                       # Total read bandwidth from this memory (bytes/s)
system.mem_ctrls.bw_read::.cpu.data              8152                       # Total read bandwidth from this memory (bytes/s)
system.mem_ctrls.bw_read::.switch_cpus.inst      1324669                       # Total read bandwidth from this memory (bytes/s)
system.mem_ctrls.bw_read::.switch_cpus.data     42849983                       # Total read bandwidth from this memory (bytes/s)
system.mem_ctrls.bw_read::total              44190956                       # Total read bandwidth from this memory (bytes/s)
system.mem_ctrls.bw_total::.cpu.inst             8152                       # Total bandwidth to/from this memory (bytes/s)
system.mem_ctrls.bw_total::.cpu.data             8152                       # Total bandwidth to/from this memory (bytes/s)
system.mem_ctrls.bw_total::.switch_cpus.inst      1324669                       # Total bandwidth to/from this memory (bytes/s)
system.mem_ctrls.bw_total::.switch_cpus.data     42849983                       # Total bandwidth to/from this memory (bytes/s)
system.mem_ctrls.bw_total::total             44190956                       # Total bandwidth to/from this memory (bytes/s)
system.mem_ctrls.bytesPerActivate::samples         3331                       # Bytes accessed per row activation
system.mem_ctrls.bytesPerActivate::mean    208.235365                       # Bytes accessed per row activation
system.mem_ctrls.bytesPerActivate::gmean   139.760170                       # Bytes accessed per row activation
system.mem_ctrls.bytesPerActivate::stdev   218.923914                       # Bytes accessed per row activation
system.mem_ctrls.bytesPerActivate::0-127         1484     44.55%     44.55% # Bytes accessed per row activation
system.mem_ctrls.bytesPerActivate::128-255          911     27.35%     71.90% # Bytes accessed per row activation
system.mem_ctrls.bytesPerActivate::256-383          352     10.57%     82.47% # Bytes accessed per row activation
system.mem_ctrls.bytesPerActivate::384-511          236      7.08%     89.55% # Bytes accessed per row activation
system.mem_ctrls.bytesPerActivate::512-639          122      3.66%     93.22% # Bytes accessed per row activation
system.mem_ctrls.bytesPerActivate::640-767           78      2.34%     95.56% # Bytes accessed per row activation
system.mem_ctrls.bytesPerActivate::768-895           38      1.14%     96.70% # Bytes accessed per row activation
system.mem_ctrls.bytesPerActivate::896-1023           20      0.60%     97.30% # Bytes accessed per row activation
system.mem_ctrls.bytesPerActivate::1024-1151           90      2.70%    100.00% # Bytes accessed per row activation
system.mem_ctrls.bytesPerActivate::total         3331                       # Bytes accessed per row activation
system.mem_ctrls.bytesReadDRAM                 693632                       # Total number of bytes read from DRAM
system.mem_ctrls.bytesReadSys                  693632                       # Total read bytes from the system interface side
system.mem_ctrls.bytesReadWrQ                       0                       # Total number of bytes read from write queue
system.mem_ctrls.bytesWritten                       0                       # Total number of bytes written to DRAM
system.mem_ctrls.bytesWrittenSys                    0                       # Total written bytes from the system interface side
system.mem_ctrls.bytes_inst_read::.cpu.inst          128                       # Number of instructions bytes read from this memory
system.mem_ctrls.bytes_inst_read::.switch_cpus.inst        20800                       # Number of instructions bytes read from this memory
system.mem_ctrls.bytes_inst_read::total         20928                       # Number of instructions bytes read from this memory
system.mem_ctrls.bytes_read::.cpu.inst            128                       # Number of bytes read from this memory
system.mem_ctrls.bytes_read::.cpu.data            128                       # Number of bytes read from this memory
system.mem_ctrls.bytes_read::.switch_cpus.inst        20800                       # Number of bytes read from this memory
system.mem_ctrls.bytes_read::.switch_cpus.data       672832                       # Number of bytes read from this memory
system.mem_ctrls.bytes_read::total             693888                       # Number of bytes read from this memory
system.mem_ctrls.masterReadAccesses::.switch_cpus.inst          325                       # Per-master read serviced memory accesses
system.mem_ctrls.masterReadAccesses::.switch_cpus.data        10513                       # Per-master read serviced memory accesses
system.mem_ctrls.masterReadAvgLat::.switch_cpus.inst     39015.38                       # Per-master read average memory access latency
system.mem_ctrls.masterReadAvgLat::.switch_cpus.data     57768.91                       # Per-master read average memory access latency
system.mem_ctrls.masterReadBytes::.switch_cpus.inst        20800                       # Per-master bytes read from memory
system.mem_ctrls.masterReadBytes::.switch_cpus.data       672832                       # Per-master bytes read from memory
system.mem_ctrls.masterReadRate::.switch_cpus.inst 1324668.937051573070                       # Per-master bytes read from memory rate (Bytes/sec)
system.mem_ctrls.masterReadRate::.switch_cpus.data 42849983.185302115977                       # Per-master bytes read from memory rate (Bytes/sec)
system.mem_ctrls.masterReadTotalLat::.switch_cpus.inst     12680000                       # Per-master read total memory access latency
system.mem_ctrls.masterReadTotalLat::.switch_cpus.data    607324500                       # Per-master read total memory access latency
system.mem_ctrls.mergedWrBursts                     0                       # Number of DRAM write bursts merged with an existing one
system.mem_ctrls.neitherReadNorWriteReqs            0                       # Number of requests that are neither read nor write
system.mem_ctrls.numRdRetry                         0                       # Number of times read queue was full causing retry
system.mem_ctrls.numReadWriteTurnArounds            0                       # Number of turnarounds from READ to WRITE
system.mem_ctrls.numStayReadState               22996                       # Number of times bus staying in READ state
system.mem_ctrls.numStayWriteState                  0                       # Number of times bus staying in WRITE state
system.mem_ctrls.numWrRetry                         0                       # Number of times write queue was full causing retry
system.mem_ctrls.numWriteReadTurnArounds            0                       # Number of turnarounds from WRITE to READ
system.mem_ctrls.num_reads::.cpu.inst               2                       # Number of read requests responded to by this memory
system.mem_ctrls.num_reads::.cpu.data               2                       # Number of read requests responded to by this memory
system.mem_ctrls.num_reads::.switch_cpus.inst          325                       # Number of read requests responded to by this memory
system.mem_ctrls.num_reads::.switch_cpus.data        10513                       # Number of read requests responded to by this memory
system.mem_ctrls.num_reads::total               10842                       # Number of read requests responded to by this memory
system.mem_ctrls.pageHitRate                    69.27                       # Row buffer hit rate, read and write combined
system.mem_ctrls.peakBW                      12800.00                       # Theoretical peak bandwidth in MiByte/s
system.mem_ctrls.perBankRdBursts::0               583                       # Per bank write bursts
system.mem_ctrls.perBankRdBursts::1               781                       # Per bank write bursts
system.mem_ctrls.perBankRdBursts::2               806                       # Per bank write bursts
system.mem_ctrls.perBankRdBursts::3               730                       # Per bank write bursts
system.mem_ctrls.perBankRdBursts::4               818                       # Per bank write bursts
system.mem_ctrls.perBankRdBursts::5              1021                       # Per bank write bursts
system.mem_ctrls.perBankRdBursts::6               733                       # Per bank write bursts
system.mem_ctrls.perBankRdBursts::7               547                       # Per bank write bursts
system.mem_ctrls.perBankRdBursts::8               512                       # Per bank write bursts
system.mem_ctrls.perBankRdBursts::9               812                       # Per bank write bursts
system.mem_ctrls.perBankRdBursts::10              731                       # Per bank write bursts
system.mem_ctrls.perBankRdBursts::11              719                       # Per bank write bursts
system.mem_ctrls.perBankRdBursts::12              822                       # Per bank write bursts
system.mem_ctrls.perBankRdBursts::13              446                       # Per bank write bursts
system.mem_ctrls.perBankRdBursts::14              294                       # Per bank write bursts
system.mem_ctrls.perBankRdBursts::15              483                       # Per bank write bursts
system.mem_ctrls.perBankWrBursts::0                 0                       # Per bank write bursts
system.mem_ctrls.perBankWrBursts::1                 0                       # Per bank write bursts
system.mem_ctrls.perBankWrBursts::2                 0                       # Per bank write bursts
system.mem_ctrls.perBankWrBursts::3                 0                       # Per bank write bursts
system.mem_ctrls.perBankWrBursts::4                 0                       # Per bank write bursts
system.mem_ctrls.perBankWrBursts::5                 0                       # Per bank write bursts
system.mem_ctrls.perBankWrBursts::6                 0                       # Per bank write bursts
system.mem_ctrls.perBankWrBursts::7                 0                       # Per bank write bursts
system.mem_ctrls.perBankWrBursts::8                 0                       # Per bank write bursts
system.mem_ctrls.perBankWrBursts::9                 0                       # Per bank write bursts
system.mem_ctrls.perBankWrBursts::10                0                       # Per bank write bursts
system.mem_ctrls.perBankWrBursts::11                0                       # Per bank write bursts
system.mem_ctrls.perBankWrBursts::12                0                       # Per bank write bursts
system.mem_ctrls.perBankWrBursts::13                0                       # Per bank write bursts
system.mem_ctrls.perBankWrBursts::14                0                       # Per bank write bursts
system.mem_ctrls.perBankWrBursts::15                0                       # Per bank write bursts
system.mem_ctrls.priorityMaxLatency      0.000001105250                       # per QoS priority maximum request to response latency (s)
system.mem_ctrls.priorityMinLatency      0.000000018750                       # per QoS priority minimum request to response latency (s)
system.mem_ctrls.pwrStateResidencyTicks::UNDEFINED 1460168147000                       # Cumulative time (in ticks) in various power states
system.mem_ctrls.rdQLenPdf::0                    9111                       # What read queue length does an incoming req see
system.mem_ctrls.rdQLenPdf::1                    1463                       # What read queue length does an incoming req see
system.mem_ctrls.rdQLenPdf::2                     184                       # What read queue length does an incoming req see
system.mem_ctrls.rdQLenPdf::3                      70                       # What read queue length does an incoming req see
system.mem_ctrls.rdQLenPdf::4                       9                       # What read queue length does an incoming req see
system.mem_ctrls.rdQLenPdf::5                       1                       # What read queue length does an incoming req see
system.mem_ctrls.rdQLenPdf::6                       0                       # What read queue length does an incoming req see
system.mem_ctrls.rdQLenPdf::7                       0                       # What read queue length does an incoming req see
system.mem_ctrls.rdQLenPdf::8                       0                       # What read queue length does an incoming req see
system.mem_ctrls.rdQLenPdf::9                       0                       # What read queue length does an incoming req see
system.mem_ctrls.rdQLenPdf::10                      0                       # What read queue length does an incoming req see
system.mem_ctrls.rdQLenPdf::11                      0                       # What read queue length does an incoming req see
system.mem_ctrls.rdQLenPdf::12                      0                       # What read queue length does an incoming req see
system.mem_ctrls.rdQLenPdf::13                      0                       # What read queue length does an incoming req see
system.mem_ctrls.rdQLenPdf::14                      0                       # What read queue length does an incoming req see
system.mem_ctrls.rdQLenPdf::15                      0                       # What read queue length does an incoming req see
system.mem_ctrls.rdQLenPdf::16                      0                       # What read queue length does an incoming req see
system.mem_ctrls.rdQLenPdf::17                      0                       # What read queue length does an incoming req see
system.mem_ctrls.rdQLenPdf::18                      0                       # What read queue length does an incoming req see
system.mem_ctrls.rdQLenPdf::19                      0                       # What read queue length does an incoming req see
system.mem_ctrls.rdQLenPdf::20                      0                       # What read queue length does an incoming req see
system.mem_ctrls.rdQLenPdf::21                      0                       # What read queue length does an incoming req see
system.mem_ctrls.rdQLenPdf::22                      0                       # What read queue length does an incoming req see
system.mem_ctrls.rdQLenPdf::23                      0                       # What read queue length does an incoming req see
system.mem_ctrls.rdQLenPdf::24                      0                       # What read queue length does an incoming req see
system.mem_ctrls.rdQLenPdf::25                      0                       # What read queue length does an incoming req see
system.mem_ctrls.rdQLenPdf::26                      0                       # What read queue length does an incoming req see
system.mem_ctrls.rdQLenPdf::27                      0                       # What read queue length does an incoming req see
[...]
system.switch_cpus.iq.fu_busy_cnt             3411380                       # FU busy when requested
system.switch_cpus.iq.fu_busy_rate           0.033703                       # FU busy rate (busy events/executed inst)
system.switch_cpus.iq.fu_full::No_OpClass            0      0.00%      0.00% # attempts to use FU when none available
system.switch_cpus.iq.fu_full::IntAlu           29264      0.86%      0.86% # attempts to use FU when none available
system.switch_cpus.iq.fu_full::IntMult              1      0.00%      0.86% # attempts to use FU when none available
system.switch_cpus.iq.fu_full::IntDiv               0      0.00%      0.86% # attempts to use FU when none available
system.switch_cpus.iq.fu_full::FloatAdd          2428      0.07%      0.93% # attempts to use FU when none available
system.switch_cpus.iq.fu_full::FloatCmp             0      0.00%      0.93% # attempts to use FU when none available
system.switch_cpus.iq.fu_full::FloatCvt             0      0.00%      0.93% # attempts to use FU when none available
system.switch_cpus.iq.fu_full::FloatMult      2010683     58.94%     59.87% # attempts to use FU when none available
system.switch_cpus.iq.fu_full::FloatMultAcc            0      0.00%     59.87% # attempts to use FU when none available
system.switch_cpus.iq.fu_full::FloatDiv         23888      0.70%     60.57% # attempts to use FU when none available
system.switch_cpus.iq.fu_full::FloatMisc            0      0.00%     60.57% # attempts to use FU when none available
system.switch_cpus.iq.fu_full::FloatSqrt            0      0.00%     60.57% # attempts to use FU when none available
system.switch_cpus.iq.fu_full::SimdAdd              0      0.00%     60.57% # attempts to use FU when none available
system.switch_cpus.iq.fu_full::SimdAddAcc            0      0.00%     60.57% # attempts to use FU when none available
system.switch_cpus.iq.fu_full::SimdAlu              0      0.00%     60.57% # attempts to use FU when none available
system.switch_cpus.iq.fu_full::SimdCmp              0      0.00%     60.57% # attempts to use FU when none available
system.switch_cpus.iq.fu_full::SimdCvt              0      0.00%     60.57% # attempts to use FU when none available
system.switch_cpus.iq.fu_full::SimdMisc             0      0.00%     60.57% # attempts to use FU when none available
system.switch_cpus.iq.fu_full::SimdMult             0      0.00%     60.57% # attempts to use FU when none available
system.switch_cpus.iq.fu_full::SimdMultAcc            0      0.00%     60.57% # attempts to use FU when none available
system.switch_cpus.iq.fu_full::SimdShift            0      0.00%     60.57% # attempts to use FU when none available
system.switch_cpus.iq.fu_full::SimdShiftAcc            0      0.00%     60.57% # attempts to use FU when none available
system.switch_cpus.iq.fu_full::SimdSqrt             0      0.00%     60.57% # attempts to use FU when none available
system.switch_cpus.iq.fu_full::SimdFloatAdd            0      0.00%     60.57% # attempts to use FU when none available
system.switch_cpus.iq.fu_full::SimdFloatAlu            0      0.00%     60.57% # attempts to use FU when none available
system.switch_cpus.iq.fu_full::SimdFloatCmp            0      0.00%     60.57% # attempts to use FU when none available
system.switch_cpus.iq.fu_full::SimdFloatCvt            0      0.00%     60.57% # attempts to use FU when none available
system.switch_cpus.iq.fu_full::SimdFloatDiv            0      0.00%     60.57% # attempts to use FU when none available
system.switch_cpus.iq.fu_full::SimdFloatMisc            0      0.00%     60.57% # attempts to use FU when none available
system.switch_cpus.iq.fu_full::SimdFloatMult            0      0.00%     60.57% # attempts to use FU when none available
system.switch_cpus.iq.fu_full::SimdFloatMultAcc            0      0.00%     60.57% # attempts to use FU when none available
system.switch_cpus.iq.fu_full::SimdFloatSqrt            0      0.00%     60.57% # attempts to use FU when none available
system.switch_cpus.iq.fu_full::SimdAes              0      0.00%     60.57% # attempts to use FU when none available
system.switch_cpus.iq.fu_full::SimdAesMix            0      0.00%     60.57% # attempts to use FU when none available
system.switch_cpus.iq.fu_full::SimdSha1Hash            0      0.00%     60.57% # attempts to use FU when none available
system.switch_cpus.iq.fu_full::SimdSha1Hash2            0      0.00%     60.57% # attempts to use FU when none available
system.switch_cpus.iq.fu_full::SimdSha256Hash            0      0.00%     60.57% # attempts to use FU when none available
system.switch_cpus.iq.fu_full::SimdSha256Hash2            0      0.00%     60.57% # attempts to use FU when none available
system.switch_cpus.iq.fu_full::SimdShaSigma2            0      0.00%     60.57% # attempts to use FU when none available
system.switch_cpus.iq.fu_full::SimdShaSigma3            0      0.00%     60.57% # attempts to use FU when none available
system.switch_cpus.iq.fu_full::MemRead         323853      9.49%     70.06% # attempts to use FU when none available
system.switch_cpus.iq.fu_full::MemWrite         16672      0.49%     70.55% # attempts to use FU when none available
system.switch_cpus.iq.fu_full::FloatMemRead       991588     29.07%     99.62% # attempts to use FU when none available
system.switch_cpus.iq.fu_full::FloatMemWrite        13003      0.38%    100.00% # attempts to use FU when none available
system.switch_cpus.iq.fu_full::IprAccess            0      0.00%    100.00% # attempts to use FU when none available
system.switch_cpus.iq.fu_full::InstPrefetch            0      0.00%    100.00% # attempts to use FU when none available
system.switch_cpus.iq.int_alu_accesses       48030926                       # Number of integer alu accesses
system.switch_cpus.iq.int_inst_queue_reads    127069639                       # Number of integer instruction queue reads
system.switch_cpus.iq.int_inst_queue_wakeup_accesses     47569359                       # Number of integer instruction queue wakeup accesses
system.switch_cpus.iq.int_inst_queue_writes     49722449                       # Number of integer instruction queue writes
system.switch_cpus.iq.iqInstsAdded          101804901                       # Number of instructions added to the IQ (excludes non-spec)
system.switch_cpus.iq.iqInstsIssued         101218035                       # Number of instructions issued
system.switch_cpus.iq.iqSquashedInstsExamined      1804787                       # Number of squashed instructions iterated over during squash; mainly for profiling
system.switch_cpus.iq.iqSquashedInstsIssued         2473                       # Number of squashed instructions issued
system.switch_cpus.iq.iqSquashedOperandsExamined      1097630                       # Number of squashed operands that are examined and possibly removed from graph
system.switch_cpus.iq.issued_per_cycle::samples     31375655                       # Number of insts issued each cycle
system.switch_cpus.iq.issued_per_cycle::mean     3.226005                       # Number of insts issued each cycle
system.switch_cpus.iq.issued_per_cycle::stdev     2.421733                       # Number of insts issued each cycle
system.switch_cpus.iq.issued_per_cycle::underflows            0      0.00%      0.00% # Number of insts issued each cycle
system.switch_cpus.iq.issued_per_cycle::0      4428705     14.12%     14.12% # Number of insts issued each cycle
system.switch_cpus.iq.issued_per_cycle::1      5163313     16.46%     30.57% # Number of insts issued each cycle
system.switch_cpus.iq.issued_per_cycle::2      4259686     13.58%     44.15% # Number of insts issued each cycle
system.switch_cpus.iq.issued_per_cycle::3      5455357     17.39%     61.54% # Number of insts issued each cycle
system.switch_cpus.iq.issued_per_cycle::4      1979090      6.31%     67.84% # Number of insts issued each cycle
system.switch_cpus.iq.issued_per_cycle::5      2691516      8.58%     76.42% # Number of insts issued each cycle
system.switch_cpus.iq.issued_per_cycle::6      3822614     12.18%     88.60% # Number of insts issued each cycle
system.switch_cpus.iq.issued_per_cycle::7      1743337      5.56%     94.16% # Number of insts issued each cycle
system.switch_cpus.iq.issued_per_cycle::8      1832037      5.84%    100.00% # Number of insts issued each cycle
system.switch_cpus.iq.issued_per_cycle::overflows            0      0.00%    100.00% # Number of insts issued each cycle
system.switch_cpus.iq.issued_per_cycle::min_value            0                       # Number of insts issued each cycle
system.switch_cpus.iq.issued_per_cycle::max_value            8                       # Number of insts issued each cycle
system.switch_cpus.iq.issued_per_cycle::total     31375655                       # Number of insts issued each cycle
system.switch_cpus.iq.rate                   3.223088                       # Inst issue rate
system.switch_cpus.iq.vec_alu_accesses              0                       # Number of vector alu accesses
system.switch_cpus.iq.vec_inst_queue_reads            0                       # Number of vector instruction queue reads
system.switch_cpus.iq.vec_inst_queue_wakeup_accesses            0                       # Number of vector instruction queue wakeup accesses
system.switch_cpus.iq.vec_inst_queue_writes            0                       # Number of vector instruction queue writes
system.switch_cpus.itb.data_accesses                0                       # DTB accesses
system.switch_cpus.itb.data_acv                     0                       # DTB access violations
system.switch_cpus.itb.data_hits                    0                       # DTB hits
system.switch_cpus.itb.data_misses                  0                       # DTB misses
system.switch_cpus.itb.fetch_accesses         9806690                       # ITB accesses
system.switch_cpus.itb.fetch_acv                    0                       # ITB acv
system.switch_cpus.itb.fetch_hits             9806152                       # ITB hits
system.switch_cpus.itb.fetch_misses               538                       # ITB misses
system.switch_cpus.itb.pwrStateResidencyTicks::UNDEFINED 1460168147000                       # Cumulative time (in ticks) in various power states
system.switch_cpus.itb.read_accesses                0                       # DTB read accesses
system.switch_cpus.itb.read_acv                     0                       # DTB read access violations
system.switch_cpus.itb.read_hits                    0                       # DTB read hits
system.switch_cpus.itb.read_misses                  0                       # DTB read misses
system.switch_cpus.itb.write_accesses               0                       # DTB write accesses
system.switch_cpus.itb.write_acv                    0                       # DTB write access violations
system.switch_cpus.itb.write_hits                   0                       # DTB write hits
system.switch_cpus.itb.write_misses                 0                       # DTB write misses
system.switch_cpus.memDep0.conflictingLoads      1840158                       # Number of conflicting loads.
system.switch_cpus.memDep0.conflictingStores      1268132                       # Number of conflicting stores.
system.switch_cpus.memDep0.insertedLoads     25085228                       # Number of loads inserted to the mem dependence unit.
system.switch_cpus.memDep0.insertedStores      3958299                       # Number of stores inserted to the mem dependence unit.
system.switch_cpus.numCycles                 31404053                       # number of cpu cycles simulated
system.switch_cpus.numWorkItemsCompleted            0                       # number of work items this cpu completed
system.switch_cpus.numWorkItemsStarted              0                       # number of work items this cpu started
system.switch_cpus.pwrStateResidencyTicks::OFF  15702036500                       # Cumulative time (in ticks) in various power states
system.switch_cpus.rename.BlockCycles         1850667                       # Number of cycles rename is blocking
system.switch_cpus.rename.CommittedMaps      90401251                       # Number of HB maps that are committed
system.switch_cpus.rename.IQFullEvents         894415                       # Number of times rename has blocked due to IQ full
system.switch_cpus.rename.IdleCycles          8194179                       # Number of cycles rename is idle
system.switch_cpus.rename.LQFullEvents        4532815                       # Number of times rename has blocked due to LQ full
system.switch_cpus.rename.ROBFullEvents         47877                       # Number of times rename has blocked due to ROB full
system.switch_cpus.rename.RenameLookups     147298042                       # Number of register rename lookups that rename has made
system.switch_cpus.rename.RenamedInsts      102525035                       # Number of instructions processed by rename
system.switch_cpus.rename.RenamedOperands     92125108                       # Number of destination operands rename has renamed
system.switch_cpus.rename.RunCycles          15402698                       # Number of cycles rename is running
system.switch_cpus.rename.SQFullEvents          94850                       # Number of times rename has blocked due to SQ full
system.switch_cpus.rename.SquashCycles          43586                       # Number of cycles rename is squashing
system.switch_cpus.rename.UnblockCycles       5884524                       # Number of cycles rename is unblocking
system.switch_cpus.rename.UndoneMaps          1723750                       # Number of HB maps that are undone due to squashing
system.switch_cpus.rename.fp_rename_lookups     62270921                       # Number of floating rename lookups
system.switch_cpus.rename.int_rename_lookups     85027121                       # Number of integer rename lookups
system.switch_cpus.rename.serializeStallCycles            0                       # count of cycles rename stalled for serializing inst
system.switch_cpus.rename.serializingInsts            0                       # count of serializing insts renamed
system.switch_cpus.rename.skidInsts          10571756                       # count of insts added to the skid buffer
system.switch_cpus.rename.tempSerializingInsts            0                       # count of temporary serializing insts renamed
system.switch_cpus.rob.rob_reads            124947829                       # The number of ROB reads
system.switch_cpus.rob.rob_writes           204680124                       # The number of ROB writes
system.switch_cpus.timesIdled                     266                       # Number of times that the entire CPU went into an idle state and unscheduled itself
system.tol2bus.pkt_count_system.cpu.icache.mem_side::system.l2.cpu_side          656                       # Packet count per connected master and slave (bytes)
system.tol2bus.pkt_count_system.cpu.dcache.mem_side::system.l2.cpu_side       273763                       # Packet count per connected master and slave (bytes)
system.tol2bus.pkt_count::total                274419                       # Packet count per connected master and slave (bytes)
system.tol2bus.pkt_size_system.cpu.icache.mem_side::system.l2.cpu_side        21056                       # Cumulative packet size per connected master and slave (bytes)
system.tol2bus.pkt_size_system.cpu.dcache.mem_side::system.l2.cpu_side     10336192                       # Cumulative packet size per connected master and slave (bytes)
system.tol2bus.pkt_size::total               10357248                       # Cumulative packet size per connected master and slave (bytes)
system.tol2bus.pwrStateResidencyTicks::UNDEFINED 1460168147000                       # Cumulative time (in ticks) in various power states
system.tol2bus.reqLayer0.occupancy          161608500                       # Layer occupancy (ticks)
system.tol2bus.reqLayer0.utilization              1.0                       # Layer utilization (%)
system.tol2bus.respLayer0.occupancy            487500                       # Layer occupancy (ticks)
system.tol2bus.respLayer0.utilization             0.0                       # Layer utilization (%)
system.tol2bus.respLayer1.occupancy         136937500                       # Layer occupancy (ticks)
system.tol2bus.respLayer1.utilization             0.9                       # Layer utilization (%)
system.tol2bus.snoopTraffic                         0                       # Total snoop traffic (bytes)
system.tol2bus.snoop_fanout::samples            91752                       # Request fanout histogram
system.tol2bus.snoop_fanout::mean                   0                       # Request fanout histogram
system.tol2bus.snoop_fanout::stdev                  0                       # Request fanout histogram
system.tol2bus.snoop_fanout::underflows             0      0.00%      0.00% # Request fanout histogram
system.tol2bus.snoop_fanout::0                  91752    100.00%    100.00% # Request fanout histogram
system.tol2bus.snoop_fanout::1                      0      0.00%    100.00% # Request fanout histogram
system.tol2bus.snoop_fanout::2                      0      0.00%    100.00% # Request fanout histogram
system.tol2bus.snoop_fanout::overflows              0      0.00%    100.00% # Request fanout histogram
system.tol2bus.snoop_fanout::min_value              0                       # Request fanout histogram
system.tol2bus.snoop_fanout::max_value              0                       # Request fanout histogram
system.tol2bus.snoop_fanout::total              91752                       # Request fanout histogram
system.tol2bus.snoop_filter.hit_multi_requests            0                       # Number of requests hitting in the snoop filter with multiple (>1) holders of the requested data.
system.tol2bus.snoop_filter.hit_multi_snoops            0                       # Number of snoops hitting in the snoop filter with multiple (>1) holders of the requested data.
system.tol2bus.snoop_filter.hit_single_requests        90915                       # Number of requests hitting in the snoop filter with a single holder of the requested data.
system.tol2bus.snoop_filter.hit_single_snoops            0                       # Number of snoops hitting in the snoop filter with a single holder of the requested data.
system.tol2bus.snoop_filter.tot_requests       182667                       # Total number of requests made to the snoop filter.
system.tol2bus.snoop_filter.tot_snoops              0                       # Total number of snoops made to the snoop filter.
system.tol2bus.snoops                               0                       # Total snoops (count)
system.tol2bus.trans_dist::ReadResp             78938                       # Transaction distribution
system.tol2bus.trans_dist::WritebackDirty        70275                       # Transaction distribution
system.tol2bus.trans_dist::WritebackClean            2                       # Transaction distribution
system.tol2bus.trans_dist::CleanEvict           20638                       # Transaction distribution
system.tol2bus.trans_dist::ReadExReq            12617                       # Transaction distribution
system.tol2bus.trans_dist::ReadExResp           12617                       # Transaction distribution
system.tol2bus.trans_dist::ReadCleanReq           327                       # Transaction distribution
system.tol2bus.trans_dist::ReadSharedReq        78611                       # Transaction distribution
system.tol2bus.trans_dist::InvalidateReq          197                       # Transaction distribution
system.tol2bus.trans_dist::InvalidateResp          197                       # Transaction distribution
system.voltage_domain.voltage                       1                       # Voltage in Volts

---------- End Simulation Statistics   ----------
