
******************************directory****************************
spec_dir: /home/cuihongwei/experiment/mcpat-gem5-master/spec2006/benchspec/CPU2006
run_dir:  /home/cuihongwei/experiment/mcpat-gem5-master/spec2006/benchspec/CPU2006/400.perlbench/run/run_base_ref_amd64.0001
gem5_dir: /home/cuihongwei/experiment/experiment-gem5/raw-gem5
gem5_output_dir: /home/cuihongwei/experiment/experiment-gem5/raw-gem5/output/400.perlbench/alpha-OLD-400.perlbench-input1-190330-203241
benchmark_output:/home/cuihongwei/experiment/experiment-gem5/raw-gem5/output/400.perlbench/alpha-OLD-400.perlbench-input1-190330-203241
checkpoint_dir:/home/cuihongwei/experiment/experiment-gem5/pubs-gem5/output/alpha-400.perlbench-checkpoint-input1

******************************benchmark****************************
target:     400.perlbench
executable: perlbench
args:       -I./lib checkspam.pl 2500 5 25 11 150 1 1 1 1
input:      
output:     /home/cuihongwei/experiment/experiment-gem5/raw-gem5/output/400.perlbench/alpha-OLD-400.perlbench-input1-190330-203241/checkspam.2500.5.25.11.150.1.1.1.1.out
errout:     /home/cuihongwei/experiment/experiment-gem5/raw-gem5/output/400.perlbench/alpha-OLD-400.perlbench-input1-190330-203241/checkspam.2500.5.25.11.150.1.1.1.1.err

******************************gem5****************************
arch:       /home/cuihongwei/experiment/experiment-gem5/raw-gem5/build/ALPHA/gem5.opt
config:     /home/cuihongwei/experiment/experiment-gem5/raw-gem5/configs/example/se.py
args:       --num-cpus=1 --mem-size=8GB --caches --l1d_size=32kB --l1d_assoc=8 --l1i_size=32kB --l1i_assoc=8 --l2cache --l2_size=2MB --l2_assoc=16 --at-instruction --checkpoint-restore=5000000000 --maxinsts=100000000 --cpu-type=DerivO3CPU
debugFlag:  --debug-flags=ShowRunning

******************************simulation****************************
start time:(year-mon-day hour-minute-second)19-03-30 20-32-41
gem5 Simulator System.  http://gem5.org
gem5 is copyrighted software; use the --copyright option for details.

gem5 compiled Mar 30 2019 20:24:53
gem5 started Mar 30 2019 20:32:41
gem5 executing on mprc-R730, pid 15519
command line: /home/cuihongwei/experiment/experiment-gem5/raw-gem5/build/ALPHA/gem5.opt --outdir=/home/cuihongwei/experiment/experiment-gem5/raw-gem5/output/400.perlbench/alpha-OLD-400.perlbench-input1-190330-203241 --debug-flags=ShowRunning /home/cuihongwei/experiment/experiment-gem5/raw-gem5/configs/example/se.py --num-cpus=1 --mem-size=8GB --caches --l1d_size=32kB --l1d_assoc=8 --l1i_size=32kB --l1i_assoc=8 --l2cache --l2_size=2MB --l2_assoc=16 --at-instruction --checkpoint-restore=5000000000 --maxinsts=100000000 --cpu-type=DerivO3CPU --checkpoint-dir=/home/cuihongwei/experiment/experiment-gem5/pubs-gem5/output/alpha-400.perlbench-checkpoint-input1 --cmd=/home/cuihongwei/experiment/mcpat-gem5-master/spec2006/benchspec/CPU2006/400.perlbench/run/build_peak_alpha.0001/perlbench '--options=-I./lib checkspam.pl 2500 5 25 11 150 1 1 1 1' --output=/home/cuihongwei/experiment/experiment-gem5/raw-gem5/output/400.perlbench/alpha-OLD-400.perlbench-input1-190330-203241/checkspam.2500.5.25.11.150.1.1.1.1.out --input= --errout=/home/cuihongwei/experiment/experiment-gem5/raw-gem5/output/400.perlbench/alpha-OLD-400.perlbench-input1-190330-203241/checkspam.2500.5.25.11.150.1.1.1.1.err

Global frequency set at 1000000000000 ticks per second
Switch at curTick count:10000
Switched CPUS @ tick 2528447792750
switching cpus
**** REAL SIMULATION ****
2528447793500: system.switch_cpus: Raw Gem5 Running in Cycle:               0, Inst:               0
2528524661500: system.switch_cpus: Raw Gem5 Running in Cycle:          100000, Inst:           69153
2528580529500: system.switch_cpus: Raw Gem5 Running in Cycle:          200000, Inst:          114204
2528630939500: system.switch_cpus: Raw Gem5 Running in Cycle:          300000, Inst:          155461
2528681533500: system.switch_cpus: Raw Gem5 Running in Cycle:          400000, Inst:          196391
2528731533500: system.switch_cpus: Raw Gem5 Running in Cycle:          500000, Inst:          238165
2528781563000: system.switch_cpus: Raw Gem5 Running in Cycle:          600000, Inst:          281604
2528831683000: system.switch_cpus: Raw Gem5 Running in Cycle:          700000, Inst:          324681
2528881739000: system.switch_cpus: Raw Gem5 Running in Cycle:          800000, Inst:          370072
2528931927000: system.switch_cpus: Raw Gem5 Running in Cycle:          900000, Inst:          415287
2528982043000: system.switch_cpus: Raw Gem5 Running in Cycle:         1000000, Inst:          460783
2529032139000: system.switch_cpus: Raw Gem5 Running in Cycle:         1100000, Inst:          509941
2529082170000: system.switch_cpus: Raw Gem5 Running in Cycle:         1200000, Inst:          559966
2529132170000: system.switch_cpus: Raw Gem5 Running in Cycle:         1300000, Inst:          609620
2529182170000: system.switch_cpus: Raw Gem5 Running in Cycle:         1400000, Inst:          662072
2529234797000: system.switch_cpus: Raw Gem5 Running in Cycle:         1500000, Inst:          710859
2529286268500: system.switch_cpus: Raw Gem5 Running in Cycle:         1600000, Inst:          779101
2529336268500: system.switch_cpus: Raw Gem5 Running in Cycle:         1700000, Inst:          855070
2529386362000: system.switch_cpus: Raw Gem5 Running in Cycle:         1800000, Inst:          927469
2529436362000: system.switch_cpus: Raw Gem5 Running in Cycle:         1900000, Inst:         1000674
2529486362000: system.switch_cpus: Raw Gem5 Running in Cycle:         2000000, Inst:         1076676
2529536362000: system.switch_cpus: Raw Gem5 Running in Cycle:         2100000, Inst:         1157130
2529586362000: system.switch_cpus: Raw Gem5 Running in Cycle:         2200000, Inst:         1235409
2529636362000: system.switch_cpus: Raw Gem5 Running in Cycle:         2300000, Inst:         1317217
2529686362000: system.switch_cpus: Raw Gem5 Running in Cycle:         2400000, Inst:         1396968
2529736362000: system.switch_cpus: Raw Gem5 Running in Cycle:         2500000, Inst:         1478484
2529786362000: system.switch_cpus: Raw Gem5 Running in Cycle:         2600000, Inst:         1561466
2529836362000: system.switch_cpus: Raw Gem5 Running in Cycle:         2700000, Inst:         1644221
2529886362000: system.switch_cpus: Raw Gem5 Running in Cycle:         2800000, Inst:         1730773
2529936362000: system.switch_cpus: Raw Gem5 Running in Cycle:         2900000, Inst:         1820158
2529986362000: system.switch_cpus: Raw Gem5 Running in Cycle:         3000000, Inst:         1899231
2530036442000: system.switch_cpus: Raw Gem5 Running in Cycle:         3100000, Inst:         1984697
2530086442000: system.switch_cpus: Raw Gem5 Running in Cycle:         3200000, Inst:         2074519
2530136442000: system.switch_cpus: Raw Gem5 Running in Cycle:         3300000, Inst:         2167440
2530186442000: system.switch_cpus: Raw Gem5 Running in Cycle:         3400000, Inst:         2262546
2530236442000: system.switch_cpus: Raw Gem5 Running in Cycle:         3500000, Inst:         2352793
2530286442000: system.switch_cpus: Raw Gem5 Running in Cycle:         3600000, Inst:         2444181
2530336442000: system.switch_cpus: Raw Gem5 Running in Cycle:         3700000, Inst:         2533805
2530386442000: system.switch_cpus: Raw Gem5 Running in Cycle:         3800000, Inst:         2626974
2530436549500: system.switch_cpus: Raw Gem5 Running in Cycle:         3900000, Inst:         2716230
2530486549500: system.switch_cpus: Raw Gem5 Running in Cycle:         4000000, Inst:         2809104
2530536549500: system.switch_cpus: Raw Gem5 Running in Cycle:         4100000, Inst:         2905561
2530586549500: system.switch_cpus: Raw Gem5 Running in Cycle:         4200000, Inst:         2997850
2530636549500: system.switch_cpus: Raw Gem5 Running in Cycle:         4300000, Inst:         3089373
2530686549500: system.switch_cpus: Raw Gem5 Running in Cycle:         4400000, Inst:         3179602
2530737454000: system.switch_cpus: Raw Gem5 Running in Cycle:         4500000, Inst:         3265028
2530834513500: system.switch_cpus: Raw Gem5 Running in Cycle:         4600000, Inst:         3307901
2530907713000: system.switch_cpus: Raw Gem5 Running in Cycle:         4700000, Inst:         3350757
2530977035000: system.switch_cpus: Raw Gem5 Running in Cycle:         4800000, Inst:         3416874
2531039072500: system.switch_cpus: Raw Gem5 Running in Cycle:         4900000, Inst:         3486154
2531089098500: system.switch_cpus: Raw Gem5 Running in Cycle:         5000000, Inst:         3643685
2531145588000: system.switch_cpus: Raw Gem5 Running in Cycle:         5100000, Inst:         3796967
2531195714000: system.switch_cpus: Raw Gem5 Running in Cycle:         5200000, Inst:         3958847
2531245721500: system.switch_cpus: Raw Gem5 Running in Cycle:         5300000, Inst:         4131695
2531295726000: system.switch_cpus: Raw Gem5 Running in Cycle:         5400000, Inst:         4300581
2531345740000: system.switch_cpus: Raw Gem5 Running in Cycle:         5500000, Inst:         4521314
2531395848500: system.switch_cpus: Raw Gem5 Running in Cycle:         5600000, Inst:         4693322
2531445905000: system.switch_cpus: Raw Gem5 Running in Cycle:         5700000, Inst:         4871357
2531496290500: system.switch_cpus: Raw Gem5 Running in Cycle:         5800000, Inst:         5054753
2531547804500: system.switch_cpus: Raw Gem5 Running in Cycle:         5900000, Inst:         5221366
2531597808000: system.switch_cpus: Raw Gem5 Running in Cycle:         6000000, Inst:         5383814
2531647825000: system.switch_cpus: Raw Gem5 Running in Cycle:         6100000, Inst:         5576423
2531697828000: system.switch_cpus: Raw Gem5 Running in Cycle:         6200000, Inst:         5820239
2531747875000: system.switch_cpus: Raw Gem5 Running in Cycle:         6300000, Inst:         5990840
2531797902000: system.switch_cpus: Raw Gem5 Running in Cycle:         6400000, Inst:         6171185
2531847964500: system.switch_cpus: Raw Gem5 Running in Cycle:         6500000, Inst:         6338987
2531898045000: system.switch_cpus: Raw Gem5 Running in Cycle:         6600000, Inst:         6518847
2531948074500: system.switch_cpus: Raw Gem5 Running in Cycle:         6700000, Inst:         6723780
2531998214000: system.switch_cpus: Raw Gem5 Running in Cycle:         6800000, Inst:         6876867
2532048216000: system.switch_cpus: Raw Gem5 Running in Cycle:         6900000, Inst:         7062051
2532098217000: system.switch_cpus: Raw Gem5 Running in Cycle:         7000000, Inst:         7248588
2532148218000: system.switch_cpus: Raw Gem5 Running in Cycle:         7100000, Inst:         7428194
2532198218000: system.switch_cpus: Raw Gem5 Running in Cycle:         7200000, Inst:         7597731
2532248222000: system.switch_cpus: Raw Gem5 Running in Cycle:         7300000, Inst:         7775132
2532298222000: system.switch_cpus: Raw Gem5 Running in Cycle:         7400000, Inst:         7960104
2532348230000: system.switch_cpus: Raw Gem5 Running in Cycle:         7500000, Inst:         8111236
2532398232000: system.switch_cpus: Raw Gem5 Running in Cycle:         7600000, Inst:         8293847
2532448232000: system.switch_cpus: Raw Gem5 Running in Cycle:         7700000, Inst:         8479408
2532498262000: system.switch_cpus: Raw Gem5 Running in Cycle:         7800000, Inst:         8660366
2532548262000: system.switch_cpus: Raw Gem5 Running in Cycle:         7900000, Inst:         8910487
2532598262000: system.switch_cpus: Raw Gem5 Running in Cycle:         8000000, Inst:         9160851
2532648293500: system.switch_cpus: Raw Gem5 Running in Cycle:         8100000, Inst:         9361101
2532698321500: system.switch_cpus: Raw Gem5 Running in Cycle:         8200000, Inst:         9542224
2532748338500: system.switch_cpus: Raw Gem5 Running in Cycle:         8300000, Inst:         9721492
2532798339500: system.switch_cpus: Raw Gem5 Running in Cycle:         8400000, Inst:         9904296
2532848340500: system.switch_cpus: Raw Gem5 Running in Cycle:         8500000, Inst:        10090724
2532898341500: system.switch_cpus: Raw Gem5 Running in Cycle:         8600000, Inst:        10277710
2532948341500: system.switch_cpus: Raw Gem5 Running in Cycle:         8700000, Inst:        10458990
2532998341500: system.switch_cpus: Raw Gem5 Running in Cycle:         8800000, Inst:        10643898
2533048341500: system.switch_cpus: Raw Gem5 Running in Cycle:         8900000, Inst:        10829551
2533098341500: system.switch_cpus: Raw Gem5 Running in Cycle:         9000000, Inst:        11007273
2533148344000: system.switch_cpus: Raw Gem5 Running in Cycle:         9100000, Inst:        11185747
2533198349000: system.switch_cpus: Raw Gem5 Running in Cycle:         9200000, Inst:        11326919
2533248349000: system.switch_cpus: Raw Gem5 Running in Cycle:         9300000, Inst:        11512558
2533298349000: system.switch_cpus: Raw Gem5 Running in Cycle:         9400000, Inst:        11692891
2533348350000: system.switch_cpus: Raw Gem5 Running in Cycle:         9500000, Inst:        11875500
2533398350000: system.switch_cpus: Raw Gem5 Running in Cycle:         9600000, Inst:        12057715
2533448351000: system.switch_cpus: Raw Gem5 Running in Cycle:         9700000, Inst:        12239344
2533498358000: system.switch_cpus: Raw Gem5 Running in Cycle:         9800000, Inst:        12347594
2533548370500: system.switch_cpus: Raw Gem5 Running in Cycle:         9900000, Inst:        12579573
2533598370500: system.switch_cpus: Raw Gem5 Running in Cycle:        10000000, Inst:        12829598
2533648370500: system.switch_cpus: Raw Gem5 Running in Cycle:        10100000, Inst:        13079164
2533698370500: system.switch_cpus: Raw Gem5 Running in Cycle:        10200000, Inst:        13329183
2533748447000: system.switch_cpus: Raw Gem5 Running in Cycle:        10300000, Inst:        13519068
2533798467000: system.switch_cpus: Raw Gem5 Running in Cycle:        10400000, Inst:        13700641
2533848470000: system.switch_cpus: Raw Gem5 Running in Cycle:        10500000, Inst:        13911061
2533898482500: system.switch_cpus: Raw Gem5 Running in Cycle:        10600000, Inst:        14117388
2533949299000: system.switch_cpus: Raw Gem5 Running in Cycle:        10700000, Inst:        14316492
2533999310500: system.switch_cpus: Raw Gem5 Running in Cycle:        10800000, Inst:        14512150
2534049311500: system.switch_cpus: Raw Gem5 Running in Cycle:        10900000, Inst:        14723020
2534099322000: system.switch_cpus: Raw Gem5 Running in Cycle:        11000000, Inst:        14934690
2534149345500: system.switch_cpus: Raw Gem5 Running in Cycle:        11100000, Inst:        15125876
2534199359500: system.switch_cpus: Raw Gem5 Running in Cycle:        11200000, Inst:        15312452
2534249380500: system.switch_cpus: Raw Gem5 Running in Cycle:        11300000, Inst:        15495408
2534299404000: system.switch_cpus: Raw Gem5 Running in Cycle:        11400000, Inst:        15668914
2534349435500: system.switch_cpus: Raw Gem5 Running in Cycle:        11500000, Inst:        15871134
2534399516000: system.switch_cpus: Raw Gem5 Running in Cycle:        11600000, Inst:        16039050
2534449517500: system.switch_cpus: Raw Gem5 Running in Cycle:        11700000, Inst:        16214511
2534499517500: system.switch_cpus: Raw Gem5 Running in Cycle:        11800000, Inst:        16393075
2534549517500: system.switch_cpus: Raw Gem5 Running in Cycle:        11900000, Inst:        16577862
2534599517500: system.switch_cpus: Raw Gem5 Running in Cycle:        12000000, Inst:        16758314
2534649518500: system.switch_cpus: Raw Gem5 Running in Cycle:        12100000, Inst:        16939963
2534699518500: system.switch_cpus: Raw Gem5 Running in Cycle:        12200000, Inst:        17124378
2534749521000: system.switch_cpus: Raw Gem5 Running in Cycle:        12300000, Inst:        17309041
2534799521000: system.switch_cpus: Raw Gem5 Running in Cycle:        12400000, Inst:        17490764
2534849524500: system.switch_cpus: Raw Gem5 Running in Cycle:        12500000, Inst:        17662225
2534899524500: system.switch_cpus: Raw Gem5 Running in Cycle:        12600000, Inst:        17847055
2534949534000: system.switch_cpus: Raw Gem5 Running in Cycle:        12700000, Inst:        18034166
2534999534000: system.switch_cpus: Raw Gem5 Running in Cycle:        12800000, Inst:        18284173
2535049534000: system.switch_cpus: Raw Gem5 Running in Cycle:        12900000, Inst:        18533976
2535099635000: system.switch_cpus: Raw Gem5 Running in Cycle:        13000000, Inst:        18741056
2535149675000: system.switch_cpus: Raw Gem5 Running in Cycle:        13100000, Inst:        18912195
2535199798000: system.switch_cpus: Raw Gem5 Running in Cycle:        13200000, Inst:        19089266
2535249848500: system.switch_cpus: Raw Gem5 Running in Cycle:        13300000, Inst:        19261501
2535299870500: system.switch_cpus: Raw Gem5 Running in Cycle:        13400000, Inst:        19456347
2535349916500: system.switch_cpus: Raw Gem5 Running in Cycle:        13500000, Inst:        19623298
2535400046000: system.switch_cpus: Raw Gem5 Running in Cycle:        13600000, Inst:        19798262
2535450225500: system.switch_cpus: Raw Gem5 Running in Cycle:        13700000, Inst:        19969839
2535500235000: system.switch_cpus: Raw Gem5 Running in Cycle:        13800000, Inst:        20177801
2535550374500: system.switch_cpus: Raw Gem5 Running in Cycle:        13900000, Inst:        20336435
2535600425000: system.switch_cpus: Raw Gem5 Running in Cycle:        14000000, Inst:        20493992
2535650624000: system.switch_cpus: Raw Gem5 Running in Cycle:        14100000, Inst:        20667574
2535700663000: system.switch_cpus: Raw Gem5 Running in Cycle:        14200000, Inst:        20855947
2535750902000: system.switch_cpus: Raw Gem5 Running in Cycle:        14300000, Inst:        21026101
2535800947000: system.switch_cpus: Raw Gem5 Running in Cycle:        14400000, Inst:        21204309
2535851077000: system.switch_cpus: Raw Gem5 Running in Cycle:        14500000, Inst:        21395634
2535901107000: system.switch_cpus: Raw Gem5 Running in Cycle:        14600000, Inst:        21610080
2535951115500: system.switch_cpus: Raw Gem5 Running in Cycle:        14700000, Inst:        21838873
2536001147500: system.switch_cpus: Raw Gem5 Running in Cycle:        14800000, Inst:        22036010
2536051246000: system.switch_cpus: Raw Gem5 Running in Cycle:        14900000, Inst:        22200765
2536101297500: system.switch_cpus: Raw Gem5 Running in Cycle:        15000000, Inst:        22370007
2536151329500: system.switch_cpus: Raw Gem5 Running in Cycle:        15100000, Inst:        22538347
2536201429000: system.switch_cpus: Raw Gem5 Running in Cycle:        15200000, Inst:        22712117
2536251429500: system.switch_cpus: Raw Gem5 Running in Cycle:        15300000, Inst:        22887240
2536301459000: system.switch_cpus: Raw Gem5 Running in Cycle:        15400000, Inst:        23052029
2536351483500: system.switch_cpus: Raw Gem5 Running in Cycle:        15500000, Inst:        23229010
2536401492500: system.switch_cpus: Raw Gem5 Running in Cycle:        15600000, Inst:        23437284
2536451623500: system.switch_cpus: Raw Gem5 Running in Cycle:        15700000, Inst:        23603558
2536501726000: system.switch_cpus: Raw Gem5 Running in Cycle:        15800000, Inst:        23768583
2536551784000: system.switch_cpus: Raw Gem5 Running in Cycle:        15900000, Inst:        23928278
2536601855500: system.switch_cpus: Raw Gem5 Running in Cycle:        16000000, Inst:        24101309
2536651952000: system.switch_cpus: Raw Gem5 Running in Cycle:        16100000, Inst:        24255069
2536701975500: system.switch_cpus: Raw Gem5 Running in Cycle:        16200000, Inst:        24433936
2536752023000: system.switch_cpus: Raw Gem5 Running in Cycle:        16300000, Inst:        24586031
2536802087500: system.switch_cpus: Raw Gem5 Running in Cycle:        16400000, Inst:        24753091
2536852212500: system.switch_cpus: Raw Gem5 Running in Cycle:        16500000, Inst:        24948493
2536902840000: system.switch_cpus: Raw Gem5 Running in Cycle:        16600000, Inst:        25094854
2536952840000: system.switch_cpus: Raw Gem5 Running in Cycle:        16700000, Inst:        25259415
2537002859000: system.switch_cpus: Raw Gem5 Running in Cycle:        16800000, Inst:        25440615
2537052859000: system.switch_cpus: Raw Gem5 Running in Cycle:        16900000, Inst:        25621891
2537102859000: system.switch_cpus: Raw Gem5 Running in Cycle:        17000000, Inst:        25796712
2537152859000: system.switch_cpus: Raw Gem5 Running in Cycle:        17100000, Inst:        25978180
2537202860000: system.switch_cpus: Raw Gem5 Running in Cycle:        17200000, Inst:        26161798
2537252860000: system.switch_cpus: Raw Gem5 Running in Cycle:        17300000, Inst:        26344064
2537302860000: system.switch_cpus: Raw Gem5 Running in Cycle:        17400000, Inst:        26516155
2537352860000: system.switch_cpus: Raw Gem5 Running in Cycle:        17500000, Inst:        26696506
2537402861000: system.switch_cpus: Raw Gem5 Running in Cycle:        17600000, Inst:        26871552
2537452861000: system.switch_cpus: Raw Gem5 Running in Cycle:        17700000, Inst:        27049084
2537502861000: system.switch_cpus: Raw Gem5 Running in Cycle:        17800000, Inst:        27230004
2537552861000: system.switch_cpus: Raw Gem5 Running in Cycle:        17900000, Inst:        27411523
2537602861000: system.switch_cpus: Raw Gem5 Running in Cycle:        18000000, Inst:        27590480
2537652861000: system.switch_cpus: Raw Gem5 Running in Cycle:        18100000, Inst:        27774751
2537702861000: system.switch_cpus: Raw Gem5 Running in Cycle:        18200000, Inst:        27958155
2537752866500: system.switch_cpus: Raw Gem5 Running in Cycle:        18300000, Inst:        28191551
2537802866500: system.switch_cpus: Raw Gem5 Running in Cycle:        18400000, Inst:        28441114
2537852866500: system.switch_cpus: Raw Gem5 Running in Cycle:        18500000, Inst:        28691135
2537902866500: system.switch_cpus: Raw Gem5 Running in Cycle:        18600000, Inst:        28941143
2537952904500: system.switch_cpus: Raw Gem5 Running in Cycle:        18700000, Inst:        29120599
2538003026000: system.switch_cpus: Raw Gem5 Running in Cycle:        18800000, Inst:        29282552
2538053306500: system.switch_cpus: Raw Gem5 Running in Cycle:        18900000, Inst:        29461529
2538103333500: system.switch_cpus: Raw Gem5 Running in Cycle:        19000000, Inst:        29668801
2538153354000: system.switch_cpus: Raw Gem5 Running in Cycle:        19100000, Inst:        29828996
2538203701000: system.switch_cpus: Raw Gem5 Running in Cycle:        19200000, Inst:        29994056
2538253726000: system.switch_cpus: Raw Gem5 Running in Cycle:        19300000, Inst:        30176764
2538303793000: system.switch_cpus: Raw Gem5 Running in Cycle:        19400000, Inst:        30354454
2538353886000: system.switch_cpus: Raw Gem5 Running in Cycle:        19500000, Inst:        30533201
2538403900000: system.switch_cpus: Raw Gem5 Running in Cycle:        19600000, Inst:        30698893
2538453972500: system.switch_cpus: Raw Gem5 Running in Cycle:        19700000, Inst:        30881247
2538504051000: system.switch_cpus: Raw Gem5 Running in Cycle:        19800000, Inst:        31045547
2538554085000: system.switch_cpus: Raw Gem5 Running in Cycle:        19900000, Inst:        31219158
2538604137500: system.switch_cpus: Raw Gem5 Running in Cycle:        20000000, Inst:        31396149
2538654256500: system.switch_cpus: Raw Gem5 Running in Cycle:        20100000, Inst:        31549822
2538704341000: system.switch_cpus: Raw Gem5 Running in Cycle:        20200000, Inst:        31721097
2538754424000: system.switch_cpus: Raw Gem5 Running in Cycle:        20300000, Inst:        31889333
2538804457500: system.switch_cpus: Raw Gem5 Running in Cycle:        20400000, Inst:        32058241
2538854467500: system.switch_cpus: Raw Gem5 Running in Cycle:        20500000, Inst:        32223749
2538904516000: system.switch_cpus: Raw Gem5 Running in Cycle:        20600000, Inst:        32403416
2538954597000: system.switch_cpus: Raw Gem5 Running in Cycle:        20700000, Inst:        32572855
2539004690500: system.switch_cpus: Raw Gem5 Running in Cycle:        20800000, Inst:        32719478
2539054767500: system.switch_cpus: Raw Gem5 Running in Cycle:        20900000, Inst:        32879605
2539104886000: system.switch_cpus: Raw Gem5 Running in Cycle:        21000000, Inst:        33052823
2539154958000: system.switch_cpus: Raw Gem5 Running in Cycle:        21100000, Inst:        33219644
2539205037000: system.switch_cpus: Raw Gem5 Running in Cycle:        21200000, Inst:        33397208
2539255091000: system.switch_cpus: Raw Gem5 Running in Cycle:        21300000, Inst:        33556880
2539305121500: system.switch_cpus: Raw Gem5 Running in Cycle:        21400000, Inst:        33724203
2539355252000: system.switch_cpus: Raw Gem5 Running in Cycle:        21500000, Inst:        33893827
2539405338500: system.switch_cpus: Raw Gem5 Running in Cycle:        21600000, Inst:        34051868
2539455449000: system.switch_cpus: Raw Gem5 Running in Cycle:        21700000, Inst:        34223899
2539505550000: system.switch_cpus: Raw Gem5 Running in Cycle:        21800000, Inst:        34402529
2539555589000: system.switch_cpus: Raw Gem5 Running in Cycle:        21900000, Inst:        34567457
2539605645500: system.switch_cpus: Raw Gem5 Running in Cycle:        22000000, Inst:        34739530
2539655645500: system.switch_cpus: Raw Gem5 Running in Cycle:        22100000, Inst:        34913201
2539705646500: system.switch_cpus: Raw Gem5 Running in Cycle:        22200000, Inst:        35086141
2539755691500: system.switch_cpus: Raw Gem5 Running in Cycle:        22300000, Inst:        35265559
2539805761500: system.switch_cpus: Raw Gem5 Running in Cycle:        22400000, Inst:        35444730
2539855762500: system.switch_cpus: Raw Gem5 Running in Cycle:        22500000, Inst:        35618069
2539905782500: system.switch_cpus: Raw Gem5 Running in Cycle:        22600000, Inst:        35789268
2539955847000: system.switch_cpus: Raw Gem5 Running in Cycle:        22700000, Inst:        35967888
2540005928500: system.switch_cpus: Raw Gem5 Running in Cycle:        22800000, Inst:        36177420
2540055928500: system.switch_cpus: Raw Gem5 Running in Cycle:        22900000, Inst:        36427038
2540105957000: system.switch_cpus: Raw Gem5 Running in Cycle:        23000000, Inst:        36624126
2540156541500: system.switch_cpus: Raw Gem5 Running in Cycle:        23100000, Inst:        36788688
2540206581000: system.switch_cpus: Raw Gem5 Running in Cycle:        23200000, Inst:        36960869
2540256741500: system.switch_cpus: Raw Gem5 Running in Cycle:        23300000, Inst:        37138271
2540306798500: system.switch_cpus: Raw Gem5 Running in Cycle:        23400000, Inst:        37305296
2540356821500: system.switch_cpus: Raw Gem5 Running in Cycle:        23500000, Inst:        37455965
2540406874500: system.switch_cpus: Raw Gem5 Running in Cycle:        23600000, Inst:        37620606
2540457568500: system.switch_cpus: Raw Gem5 Running in Cycle:        23700000, Inst:        37778905
2540507611500: system.switch_cpus: Raw Gem5 Running in Cycle:        23800000, Inst:        37937260
2540557751500: system.switch_cpus: Raw Gem5 Running in Cycle:        23900000, Inst:        38107997
2540607814500: system.switch_cpus: Raw Gem5 Running in Cycle:        24000000, Inst:        38297755
2540657900000: system.switch_cpus: Raw Gem5 Running in Cycle:        24100000, Inst:        38447049
2540707900000: system.switch_cpus: Raw Gem5 Running in Cycle:        24200000, Inst:        38617828
2540757958500: system.switch_cpus: Raw Gem5 Running in Cycle:        24300000, Inst:        38786373
2540808006000: system.switch_cpus: Raw Gem5 Running in Cycle:        24400000, Inst:        38965027
2540858021500: system.switch_cpus: Raw Gem5 Running in Cycle:        24500000, Inst:        39137548
2540908031000: system.switch_cpus: Raw Gem5 Running in Cycle:        24600000, Inst:        39288940
2540958090500: system.switch_cpus: Raw Gem5 Running in Cycle:        24700000, Inst:        39461118
2541008142000: system.switch_cpus: Raw Gem5 Running in Cycle:        24800000, Inst:        39618180
2541058827000: system.switch_cpus: Raw Gem5 Running in Cycle:        24900000, Inst:        39788043
2541108870500: system.switch_cpus: Raw Gem5 Running in Cycle:        25000000, Inst:        39951643
2541158922000: system.switch_cpus: Raw Gem5 Running in Cycle:        25100000, Inst:        40109619
2541208931000: system.switch_cpus: Raw Gem5 Running in Cycle:        25200000, Inst:        40283189
2541258989000: system.switch_cpus: Raw Gem5 Running in Cycle:        25300000, Inst:        40429050
2541308995500: system.switch_cpus: Raw Gem5 Running in Cycle:        25400000, Inst:        40592916
2541359035000: system.switch_cpus: Raw Gem5 Running in Cycle:        25500000, Inst:        40763818
2541409104500: system.switch_cpus: Raw Gem5 Running in Cycle:        25600000, Inst:        40930502
2541459145500: system.switch_cpus: Raw Gem5 Running in Cycle:        25700000, Inst:        41102326
2541509320000: system.switch_cpus: Raw Gem5 Running in Cycle:        25800000, Inst:        41268531
2541559685000: system.switch_cpus: Raw Gem5 Running in Cycle:        25900000, Inst:        41434659
2541609744500: system.switch_cpus: Raw Gem5 Running in Cycle:        26000000, Inst:        41602315
2541659765000: system.switch_cpus: Raw Gem5 Running in Cycle:        26100000, Inst:        41778917
2541709765000: system.switch_cpus: Raw Gem5 Running in Cycle:        26200000, Inst:        41944245
2541760023500: system.switch_cpus: Raw Gem5 Running in Cycle:        26300000, Inst:        42121686
2541810033500: system.switch_cpus: Raw Gem5 Running in Cycle:        26400000, Inst:        42333807
2541860096000: system.switch_cpus: Raw Gem5 Running in Cycle:        26500000, Inst:        42491921
2541910221500: system.switch_cpus: Raw Gem5 Running in Cycle:        26600000, Inst:        42635879
2541960254500: system.switch_cpus: Raw Gem5 Running in Cycle:        26700000, Inst:        42815431
2542010582500: system.switch_cpus: Raw Gem5 Running in Cycle:        26800000, Inst:        42976628
2542060625500: system.switch_cpus: Raw Gem5 Running in Cycle:        26900000, Inst:        43133825
2542110701500: system.switch_cpus: Raw Gem5 Running in Cycle:        27000000, Inst:        43305195
2542160770000: system.switch_cpus: Raw Gem5 Running in Cycle:        27100000, Inst:        43481078
2542210797500: system.switch_cpus: Raw Gem5 Running in Cycle:        27200000, Inst:        43685227
2542260850500: system.switch_cpus: Raw Gem5 Running in Cycle:        27300000, Inst:        43838305
2542310901000: system.switch_cpus: Raw Gem5 Running in Cycle:        27400000, Inst:        44001615
2542360956500: system.switch_cpus: Raw Gem5 Running in Cycle:        27500000, Inst:        44153700
2542410984000: system.switch_cpus: Raw Gem5 Running in Cycle:        27600000, Inst:        44323888
2542460984500: system.switch_cpus: Raw Gem5 Running in Cycle:        27700000, Inst:        44491335
2542511014500: system.switch_cpus: Raw Gem5 Running in Cycle:        27800000, Inst:        44682147
2542561090000: system.switch_cpus: Raw Gem5 Running in Cycle:        27900000, Inst:        44851502
2542611102500: system.switch_cpus: Raw Gem5 Running in Cycle:        28000000, Inst:        45016717
2542661137000: system.switch_cpus: Raw Gem5 Running in Cycle:        28100000, Inst:        45177705
2542711162000: system.switch_cpus: Raw Gem5 Running in Cycle:        28200000, Inst:        45351846
2542761178500: system.switch_cpus: Raw Gem5 Running in Cycle:        28300000, Inst:        45522290
2542811605000: system.switch_cpus: Raw Gem5 Running in Cycle:        28400000, Inst:        45684854
2542861623500: system.switch_cpus: Raw Gem5 Running in Cycle:        28500000, Inst:        45848198
2542911678000: system.switch_cpus: Raw Gem5 Running in Cycle:        28600000, Inst:        46013810
2542961756000: system.switch_cpus: Raw Gem5 Running in Cycle:        28700000, Inst:        46171021
2543011801500: system.switch_cpus: Raw Gem5 Running in Cycle:        28800000, Inst:        46332751
2543061960000: system.switch_cpus: Raw Gem5 Running in Cycle:        28900000, Inst:        46491309
2543112082000: system.switch_cpus: Raw Gem5 Running in Cycle:        29000000, Inst:        46664177
2543162130500: system.switch_cpus: Raw Gem5 Running in Cycle:        29100000, Inst:        46843158
2543212153000: system.switch_cpus: Raw Gem5 Running in Cycle:        29200000, Inst:        47002412
2543262185000: system.switch_cpus: Raw Gem5 Running in Cycle:        29300000, Inst:        47161443
2543312271500: system.switch_cpus: Raw Gem5 Running in Cycle:        29400000, Inst:        47318146
2543362354000: system.switch_cpus: Raw Gem5 Running in Cycle:        29500000, Inst:        47478235
2543412455500: system.switch_cpus: Raw Gem5 Running in Cycle:        29600000, Inst:        47643690
2543462477000: system.switch_cpus: Raw Gem5 Running in Cycle:        29700000, Inst:        47815921
2543512520500: system.switch_cpus: Raw Gem5 Running in Cycle:        29800000, Inst:        47997265
2543562552000: system.switch_cpus: Raw Gem5 Running in Cycle:        29900000, Inst:        48170761
2543612614000: system.switch_cpus: Raw Gem5 Running in Cycle:        30000000, Inst:        48317051
2543662991000: system.switch_cpus: Raw Gem5 Running in Cycle:        30100000, Inst:        48471101
2543713055000: system.switch_cpus: Raw Gem5 Running in Cycle:        30200000, Inst:        48634871
2543763094000: system.switch_cpus: Raw Gem5 Running in Cycle:        30300000, Inst:        48800468
2543813142500: system.switch_cpus: Raw Gem5 Running in Cycle:        30400000, Inst:        48961982
2543863180500: system.switch_cpus: Raw Gem5 Running in Cycle:        30500000, Inst:        49119866
2543913214000: system.switch_cpus: Raw Gem5 Running in Cycle:        30600000, Inst:        49294493
2543963284500: system.switch_cpus: Raw Gem5 Running in Cycle:        30700000, Inst:        49459081
2544013312000: system.switch_cpus: Raw Gem5 Running in Cycle:        30800000, Inst:        49636615
2544063491500: system.switch_cpus: Raw Gem5 Running in Cycle:        30900000, Inst:        49793621
2544113555000: system.switch_cpus: Raw Gem5 Running in Cycle:        31000000, Inst:        49947301
2544164058500: system.switch_cpus: Raw Gem5 Running in Cycle:        31100000, Inst:        50133195
2544214125500: system.switch_cpus: Raw Gem5 Running in Cycle:        31200000, Inst:        50290531
2544264170500: system.switch_cpus: Raw Gem5 Running in Cycle:        31300000, Inst:        50454129
2544314195500: system.switch_cpus: Raw Gem5 Running in Cycle:        31400000, Inst:        50623622
2544364251500: system.switch_cpus: Raw Gem5 Running in Cycle:        31500000, Inst:        50780850
2544414330500: system.switch_cpus: Raw Gem5 Running in Cycle:        31600000, Inst:        50949789
2544464362000: system.switch_cpus: Raw Gem5 Running in Cycle:        31700000, Inst:        51114459
2544514460000: system.switch_cpus: Raw Gem5 Running in Cycle:        31800000, Inst:        51285089
2544564523500: system.switch_cpus: Raw Gem5 Running in Cycle:        31900000, Inst:        51431078
2544614582000: system.switch_cpus: Raw Gem5 Running in Cycle:        32000000, Inst:        51591230
2544664644000: system.switch_cpus: Raw Gem5 Running in Cycle:        32100000, Inst:        51760832
2544714682000: system.switch_cpus: Raw Gem5 Running in Cycle:        32200000, Inst:        51912749
2544764762000: system.switch_cpus: Raw Gem5 Running in Cycle:        32300000, Inst:        52076791
2544814812500: system.switch_cpus: Raw Gem5 Running in Cycle:        32400000, Inst:        52238817
2544864870000: system.switch_cpus: Raw Gem5 Running in Cycle:        32500000, Inst:        52389235
2544915193000: system.switch_cpus: Raw Gem5 Running in Cycle:        32600000, Inst:        52544289
2544965271000: system.switch_cpus: Raw Gem5 Running in Cycle:        32700000, Inst:        52709288
2545015584500: system.switch_cpus: Raw Gem5 Running in Cycle:        32800000, Inst:        52883198
2545065615500: system.switch_cpus: Raw Gem5 Running in Cycle:        32900000, Inst:        53056976
2545115666500: system.switch_cpus: Raw Gem5 Running in Cycle:        33000000, Inst:        53220947
2545165713000: system.switch_cpus: Raw Gem5 Running in Cycle:        33100000, Inst:        53410080
2545215765000: system.switch_cpus: Raw Gem5 Running in Cycle:        33200000, Inst:        53567673
2545265832000: system.switch_cpus: Raw Gem5 Running in Cycle:        33300000, Inst:        53727104
2545315881500: system.switch_cpus: Raw Gem5 Running in Cycle:        33400000, Inst:        53889868
2545366137000: system.switch_cpus: Raw Gem5 Running in Cycle:        33500000, Inst:        54052483
2545416680000: system.switch_cpus: Raw Gem5 Running in Cycle:        33600000, Inst:        54227095
2545466802500: system.switch_cpus: Raw Gem5 Running in Cycle:        33700000, Inst:        54386838
2545516862500: system.switch_cpus: Raw Gem5 Running in Cycle:        33800000, Inst:        54546968
2545566902000: system.switch_cpus: Raw Gem5 Running in Cycle:        33900000, Inst:        54705019
2545616971500: system.switch_cpus: Raw Gem5 Running in Cycle:        34000000, Inst:        54870121
2545667017500: system.switch_cpus: Raw Gem5 Running in Cycle:        34100000, Inst:        55034869
2545717301500: system.switch_cpus: Raw Gem5 Running in Cycle:        34200000, Inst:        55208310
2545767509500: system.switch_cpus: Raw Gem5 Running in Cycle:        34300000, Inst:        55404649
2545817615500: system.switch_cpus: Raw Gem5 Running in Cycle:        34400000, Inst:        55569581
2545867674500: system.switch_cpus: Raw Gem5 Running in Cycle:        34500000, Inst:        55728460
2545917725500: system.switch_cpus: Raw Gem5 Running in Cycle:        34600000, Inst:        55885676
2545967781000: system.switch_cpus: Raw Gem5 Running in Cycle:        34700000, Inst:        56051737
2546017861500: system.switch_cpus: Raw Gem5 Running in Cycle:        34800000, Inst:        56235041
2546068006500: system.switch_cpus: Raw Gem5 Running in Cycle:        34900000, Inst:        56391410
2546118086000: system.switch_cpus: Raw Gem5 Running in Cycle:        35000000, Inst:        56547472
2546168150500: system.switch_cpus: Raw Gem5 Running in Cycle:        35100000, Inst:        56698658
2546218235500: system.switch_cpus: Raw Gem5 Running in Cycle:        35200000, Inst:        56865903
2546268276000: system.switch_cpus: Raw Gem5 Running in Cycle:        35300000, Inst:        57039266
2546318296000: system.switch_cpus: Raw Gem5 Running in Cycle:        35400000, Inst:        57208305
2546368311500: system.switch_cpus: Raw Gem5 Running in Cycle:        35500000, Inst:        57383438
2546418331500: system.switch_cpus: Raw Gem5 Running in Cycle:        35600000, Inst:        57581243
2546468390500: system.switch_cpus: Raw Gem5 Running in Cycle:        35700000, Inst:        57750863
2546518422500: system.switch_cpus: Raw Gem5 Running in Cycle:        35800000, Inst:        57905651
2546568527500: system.switch_cpus: Raw Gem5 Running in Cycle:        35900000, Inst:        58073274
2546618578500: system.switch_cpus: Raw Gem5 Running in Cycle:        36000000, Inst:        58232231
2546668616000: system.switch_cpus: Raw Gem5 Running in Cycle:        36100000, Inst:        58399839
2546718627500: system.switch_cpus: Raw Gem5 Running in Cycle:        36200000, Inst:        58565623
2546768653000: system.switch_cpus: Raw Gem5 Running in Cycle:        36300000, Inst:        58748372
2546818671000: system.switch_cpus: Raw Gem5 Running in Cycle:        36400000, Inst:        58918058
2546868671000: system.switch_cpus: Raw Gem5 Running in Cycle:        36500000, Inst:        59084736
2546918728000: system.switch_cpus: Raw Gem5 Running in Cycle:        36600000, Inst:        59250838
2546968738500: system.switch_cpus: Raw Gem5 Running in Cycle:        36700000, Inst:        59417813
2547019242500: system.switch_cpus: Raw Gem5 Running in Cycle:        36800000, Inst:        59587919
2547069348000: system.switch_cpus: Raw Gem5 Running in Cycle:        36900000, Inst:        59759877
2547119407000: system.switch_cpus: Raw Gem5 Running in Cycle:        37000000, Inst:        59934633
2547169454500: system.switch_cpus: Raw Gem5 Running in Cycle:        37100000, Inst:        60105821
2547219475500: system.switch_cpus: Raw Gem5 Running in Cycle:        37200000, Inst:        60273776
2547269504500: system.switch_cpus: Raw Gem5 Running in Cycle:        37300000, Inst:        60450881
2547319504500: system.switch_cpus: Raw Gem5 Running in Cycle:        37400000, Inst:        60700943
2547369531500: system.switch_cpus: Raw Gem5 Running in Cycle:        37500000, Inst:        60851121
2547419607500: system.switch_cpus: Raw Gem5 Running in Cycle:        37600000, Inst:        61018238
2547470064500: system.switch_cpus: Raw Gem5 Running in Cycle:        37700000, Inst:        61185481
2547520163500: system.switch_cpus: Raw Gem5 Running in Cycle:        37800000, Inst:        61350045
2547570270500: system.switch_cpus: Raw Gem5 Running in Cycle:        37900000, Inst:        61522427
2547620729000: system.switch_cpus: Raw Gem5 Running in Cycle:        38000000, Inst:        61688105
2547670784000: system.switch_cpus: Raw Gem5 Running in Cycle:        38100000, Inst:        61866931
2547720810000: system.switch_cpus: Raw Gem5 Running in Cycle:        38200000, Inst:        62017544
2547770832500: system.switch_cpus: Raw Gem5 Running in Cycle:        38300000, Inst:        62187758
2547820879000: system.switch_cpus: Raw Gem5 Running in Cycle:        38400000, Inst:        62354756
2547870919500: system.switch_cpus: Raw Gem5 Running in Cycle:        38500000, Inst:        62532275
2547920947000: system.switch_cpus: Raw Gem5 Running in Cycle:        38600000, Inst:        62721721
2547970986500: system.switch_cpus: Raw Gem5 Running in Cycle:        38700000, Inst:        62896004
2548021190000: system.switch_cpus: Raw Gem5 Running in Cycle:        38800000, Inst:        63047762
2548071762500: system.switch_cpus: Raw Gem5 Running in Cycle:        38900000, Inst:        63222160
2548122070500: system.switch_cpus: Raw Gem5 Running in Cycle:        39000000, Inst:        63407913
2548172096000: system.switch_cpus: Raw Gem5 Running in Cycle:        39100000, Inst:        63582317
2548222153500: system.switch_cpus: Raw Gem5 Running in Cycle:        39200000, Inst:        63741742
2548272491000: system.switch_cpus: Raw Gem5 Running in Cycle:        39300000, Inst:        63902082
2548322543000: system.switch_cpus: Raw Gem5 Running in Cycle:        39400000, Inst:        64064619
2548372750000: system.switch_cpus: Raw Gem5 Running in Cycle:        39500000, Inst:        64227336
2548422819000: system.switch_cpus: Raw Gem5 Running in Cycle:        39600000, Inst:        64389454
2548472849000: system.switch_cpus: Raw Gem5 Running in Cycle:        39700000, Inst:        64562029
2548522907000: system.switch_cpus: Raw Gem5 Running in Cycle:        39800000, Inst:        64736641
2548572937000: system.switch_cpus: Raw Gem5 Running in Cycle:        39900000, Inst:        64919254
2548622980500: system.switch_cpus: Raw Gem5 Running in Cycle:        40000000, Inst:        65077146
2548673022000: system.switch_cpus: Raw Gem5 Running in Cycle:        40100000, Inst:        65241211
2548723049500: system.switch_cpus: Raw Gem5 Running in Cycle:        40200000, Inst:        65391927
2548773123500: system.switch_cpus: Raw Gem5 Running in Cycle:        40300000, Inst:        65552071
2548823629500: system.switch_cpus: Raw Gem5 Running in Cycle:        40400000, Inst:        65714427
2548873720000: system.switch_cpus: Raw Gem5 Running in Cycle:        40500000, Inst:        65885742
2548923780000: system.switch_cpus: Raw Gem5 Running in Cycle:        40600000, Inst:        66034674
2548973848500: system.switch_cpus: Raw Gem5 Running in Cycle:        40700000, Inst:        66206329
2549023853000: system.switch_cpus: Raw Gem5 Running in Cycle:        40800000, Inst:        66370131
2549073893000: system.switch_cpus: Raw Gem5 Running in Cycle:        40900000, Inst:        66539303
2549124002000: system.switch_cpus: Raw Gem5 Running in Cycle:        41000000, Inst:        66695477
2549174051000: system.switch_cpus: Raw Gem5 Running in Cycle:        41100000, Inst:        66857240
2549224170500: system.switch_cpus: Raw Gem5 Running in Cycle:        41200000, Inst:        67012698
2549274459000: system.switch_cpus: Raw Gem5 Running in Cycle:        41300000, Inst:        67176064
2549324530000: system.switch_cpus: Raw Gem5 Running in Cycle:        41400000, Inst:        67342770
2549374555500: system.switch_cpus: Raw Gem5 Running in Cycle:        41500000, Inst:        67509840
2549424576000: system.switch_cpus: Raw Gem5 Running in Cycle:        41600000, Inst:        67681309
2549474621500: system.switch_cpus: Raw Gem5 Running in Cycle:        41700000, Inst:        67858370
2549524656500: system.switch_cpus: Raw Gem5 Running in Cycle:        41800000, Inst:        68025306
2549574717000: system.switch_cpus: Raw Gem5 Running in Cycle:        41900000, Inst:        68203040
2549624723000: system.switch_cpus: Raw Gem5 Running in Cycle:        42000000, Inst:        68411913
2549674789000: system.switch_cpus: Raw Gem5 Running in Cycle:        42100000, Inst:        68589015
2549724817000: system.switch_cpus: Raw Gem5 Running in Cycle:        42200000, Inst:        68754154
2549774851000: system.switch_cpus: Raw Gem5 Running in Cycle:        42300000, Inst:        68903473
2549824894000: system.switch_cpus: Raw Gem5 Running in Cycle:        42400000, Inst:        69077781
2549875018500: system.switch_cpus: Raw Gem5 Running in Cycle:        42500000, Inst:        69231571
2549925115500: system.switch_cpus: Raw Gem5 Running in Cycle:        42600000, Inst:        69391182
2549975139500: system.switch_cpus: Raw Gem5 Running in Cycle:        42700000, Inst:        69560425
2550025207500: system.switch_cpus: Raw Gem5 Running in Cycle:        42800000, Inst:        69756587
2550075314000: system.switch_cpus: Raw Gem5 Running in Cycle:        42900000, Inst:        69907273
2550125345500: system.switch_cpus: Raw Gem5 Running in Cycle:        43000000, Inst:        70060397
2550175414500: system.switch_cpus: Raw Gem5 Running in Cycle:        43100000, Inst:        70216398
2550225627500: system.switch_cpus: Raw Gem5 Running in Cycle:        43200000, Inst:        70391570
2550275670500: system.switch_cpus: Raw Gem5 Running in Cycle:        43300000, Inst:        70567573
2550325918000: system.switch_cpus: Raw Gem5 Running in Cycle:        43400000, Inst:        70729908
2550376107500: system.switch_cpus: Raw Gem5 Running in Cycle:        43500000, Inst:        70888970
2550426189000: system.switch_cpus: Raw Gem5 Running in Cycle:        43600000, Inst:        71083210
2550476283000: system.switch_cpus: Raw Gem5 Running in Cycle:        43700000, Inst:        71241681
2550526374000: system.switch_cpus: Raw Gem5 Running in Cycle:        43800000, Inst:        71405106
2550576523500: system.switch_cpus: Raw Gem5 Running in Cycle:        43900000, Inst:        71573892
2550626610000: system.switch_cpus: Raw Gem5 Running in Cycle:        44000000, Inst:        71739196
2550676844500: system.switch_cpus: Raw Gem5 Running in Cycle:        44100000, Inst:        71899721
2550726868500: system.switch_cpus: Raw Gem5 Running in Cycle:        44200000, Inst:        72073385
2550777059500: system.switch_cpus: Raw Gem5 Running in Cycle:        44300000, Inst:        72231481
2550827136000: system.switch_cpus: Raw Gem5 Running in Cycle:        44400000, Inst:        72397908
2550877444000: system.switch_cpus: Raw Gem5 Running in Cycle:        44500000, Inst:        72559755
2550927497000: system.switch_cpus: Raw Gem5 Running in Cycle:        44600000, Inst:        72724007
2550977559500: system.switch_cpus: Raw Gem5 Running in Cycle:        44700000, Inst:        72880987
2551027590000: system.switch_cpus: Raw Gem5 Running in Cycle:        44800000, Inst:        73047985
2551077603000: system.switch_cpus: Raw Gem5 Running in Cycle:        44900000, Inst:        73219507
2551127631500: system.switch_cpus: Raw Gem5 Running in Cycle:        45000000, Inst:        73402867
2551177686500: system.switch_cpus: Raw Gem5 Running in Cycle:        45100000, Inst:        73556401
2551227740000: system.switch_cpus: Raw Gem5 Running in Cycle:        45200000, Inst:        73722903
2551277995000: system.switch_cpus: Raw Gem5 Running in Cycle:        45300000, Inst:        73881378
2551328077500: system.switch_cpus: Raw Gem5 Running in Cycle:        45400000, Inst:        74043441
2551378138500: system.switch_cpus: Raw Gem5 Running in Cycle:        45500000, Inst:        74206148
2551428481000: system.switch_cpus: Raw Gem5 Running in Cycle:        45600000, Inst:        74372420
2551478690000: system.switch_cpus: Raw Gem5 Running in Cycle:        45700000, Inst:        74548924
2551528854500: system.switch_cpus: Raw Gem5 Running in Cycle:        45800000, Inst:        74742444
2551578933000: system.switch_cpus: Raw Gem5 Running in Cycle:        45900000, Inst:        74905142
2551628944500: system.switch_cpus: Raw Gem5 Running in Cycle:        46000000, Inst:        75078969
2551678976000: system.switch_cpus: Raw Gem5 Running in Cycle:        46100000, Inst:        75261490
2551729056500: system.switch_cpus: Raw Gem5 Running in Cycle:        46200000, Inst:        75414161
2551779085500: system.switch_cpus: Raw Gem5 Running in Cycle:        46300000, Inst:        75565411
2551829181000: system.switch_cpus: Raw Gem5 Running in Cycle:        46400000, Inst:        75728137
2551879265500: system.switch_cpus: Raw Gem5 Running in Cycle:        46500000, Inst:        75894741
2551929418000: system.switch_cpus: Raw Gem5 Running in Cycle:        46600000, Inst:        76059443
2551979654000: system.switch_cpus: Raw Gem5 Running in Cycle:        46700000, Inst:        76214720
2552029695000: system.switch_cpus: Raw Gem5 Running in Cycle:        46800000, Inst:        76388262
2552079784000: system.switch_cpus: Raw Gem5 Running in Cycle:        46900000, Inst:        76547190
2552129846000: system.switch_cpus: Raw Gem5 Running in Cycle:        47000000, Inst:        76713708
2552179989500: system.switch_cpus: Raw Gem5 Running in Cycle:        47100000, Inst:        76874622
2552230025500: system.switch_cpus: Raw Gem5 Running in Cycle:        47200000, Inst:        77036326
2552280404000: system.switch_cpus: Raw Gem5 Running in Cycle:        47300000, Inst:        77202935
2552330415500: system.switch_cpus: Raw Gem5 Running in Cycle:        47400000, Inst:        77376743
2552380448500: system.switch_cpus: Raw Gem5 Running in Cycle:        47500000, Inst:        77541562
2552430476000: system.switch_cpus: Raw Gem5 Running in Cycle:        47600000, Inst:        77715788
2552480595500: system.switch_cpus: Raw Gem5 Running in Cycle:        47700000, Inst:        77888849
2552530724500: system.switch_cpus: Raw Gem5 Running in Cycle:        47800000, Inst:        78056749
2552580733500: system.switch_cpus: Raw Gem5 Running in Cycle:        47900000, Inst:        78278111
2552630829500: system.switch_cpus: Raw Gem5 Running in Cycle:        48000000, Inst:        78445658
2552681290000: system.switch_cpus: Raw Gem5 Running in Cycle:        48100000, Inst:        78611170
2552731317000: system.switch_cpus: Raw Gem5 Running in Cycle:        48200000, Inst:        78784267
2552781433500: system.switch_cpus: Raw Gem5 Running in Cycle:        48300000, Inst:        78936425
2552831490500: system.switch_cpus: Raw Gem5 Running in Cycle:        48400000, Inst:        79107504
2552881769500: system.switch_cpus: Raw Gem5 Running in Cycle:        48500000, Inst:        79282411
2552931964000: system.switch_cpus: Raw Gem5 Running in Cycle:        48600000, Inst:        79455299
2552982087500: system.switch_cpus: Raw Gem5 Running in Cycle:        48700000, Inst:        79627967
2553032169500: system.switch_cpus: Raw Gem5 Running in Cycle:        48800000, Inst:        79805431
2553082318500: system.switch_cpus: Raw Gem5 Running in Cycle:        48900000, Inst:        79975494
2553132324500: system.switch_cpus: Raw Gem5 Running in Cycle:        49000000, Inst:        80198502
2553182404500: system.switch_cpus: Raw Gem5 Running in Cycle:        49100000, Inst:        80367772
2553232435000: system.switch_cpus: Raw Gem5 Running in Cycle:        49200000, Inst:        80538170
2553282487500: system.switch_cpus: Raw Gem5 Running in Cycle:        49300000, Inst:        80695310
2553332521500: system.switch_cpus: Raw Gem5 Running in Cycle:        49400000, Inst:        80844845
2553382578500: system.switch_cpus: Raw Gem5 Running in Cycle:        49500000, Inst:        81022894
2553432613000: system.switch_cpus: Raw Gem5 Running in Cycle:        49600000, Inst:        81175924
2553482820000: system.switch_cpus: Raw Gem5 Running in Cycle:        49700000, Inst:        81323566
2553533026000: system.switch_cpus: Raw Gem5 Running in Cycle:        49800000, Inst:        81486733
2553583151000: system.switch_cpus: Raw Gem5 Running in Cycle:        49900000, Inst:        81649317
2553633195500: system.switch_cpus: Raw Gem5 Running in Cycle:        50000000, Inst:        81826518
2553683364500: system.switch_cpus: Raw Gem5 Running in Cycle:        50100000, Inst:        81988487
2553733395500: system.switch_cpus: Raw Gem5 Running in Cycle:        50200000, Inst:        82145490
2553783421000: system.switch_cpus: Raw Gem5 Running in Cycle:        50300000, Inst:        82303346
2553833600500: system.switch_cpus: Raw Gem5 Running in Cycle:        50400000, Inst:        82462303
2553883667000: system.switch_cpus: Raw Gem5 Running in Cycle:        50500000, Inst:        82619129
2553933958000: system.switch_cpus: Raw Gem5 Running in Cycle:        50600000, Inst:        82784541
2553983969000: system.switch_cpus: Raw Gem5 Running in Cycle:        50700000, Inst:        82949705
2554033978500: system.switch_cpus: Raw Gem5 Running in Cycle:        50800000, Inst:        83104247
2554084026000: system.switch_cpus: Raw Gem5 Running in Cycle:        50900000, Inst:        83281145
2554134068000: system.switch_cpus: Raw Gem5 Running in Cycle:        51000000, Inst:        83452327
2554184068000: system.switch_cpus: Raw Gem5 Running in Cycle:        51100000, Inst:        83631667
2554234077000: system.switch_cpus: Raw Gem5 Running in Cycle:        51200000, Inst:        83790022
2554284097500: system.switch_cpus: Raw Gem5 Running in Cycle:        51300000, Inst:        83988456
2554334677000: system.switch_cpus: Raw Gem5 Running in Cycle:        51400000, Inst:        84160133
2554384710500: system.switch_cpus: Raw Gem5 Running in Cycle:        51500000, Inst:        84333783
2554434722000: system.switch_cpus: Raw Gem5 Running in Cycle:        51600000, Inst:        84488466
2554484857500: system.switch_cpus: Raw Gem5 Running in Cycle:        51700000, Inst:        84662174
2554534893000: system.switch_cpus: Raw Gem5 Running in Cycle:        51800000, Inst:        84858701
2554584967500: system.switch_cpus: Raw Gem5 Running in Cycle:        51900000, Inst:        85012408
2554634994000: system.switch_cpus: Raw Gem5 Running in Cycle:        52000000, Inst:        85178939
2554685264000: system.switch_cpus: Raw Gem5 Running in Cycle:        52100000, Inst:        85352836
2554735518500: system.switch_cpus: Raw Gem5 Running in Cycle:        52200000, Inst:        85523191
2554785543500: system.switch_cpus: Raw Gem5 Running in Cycle:        52300000, Inst:        85681558
2554835566000: system.switch_cpus: Raw Gem5 Running in Cycle:        52400000, Inst:        85884948
2554885685000: system.switch_cpus: Raw Gem5 Running in Cycle:        52500000, Inst:        86061822
2554935736500: system.switch_cpus: Raw Gem5 Running in Cycle:        52600000, Inst:        86217967
2554985836000: system.switch_cpus: Raw Gem5 Running in Cycle:        52700000, Inst:        86372245
2555035848500: system.switch_cpus: Raw Gem5 Running in Cycle:        52800000, Inst:        86532698
2555085885500: system.switch_cpus: Raw Gem5 Running in Cycle:        52900000, Inst:        86695873
2555135913500: system.switch_cpus: Raw Gem5 Running in Cycle:        53000000, Inst:        86854131
2555186020000: system.switch_cpus: Raw Gem5 Running in Cycle:        53100000, Inst:        87010744
2555236021500: system.switch_cpus: Raw Gem5 Running in Cycle:        53200000, Inst:        87184214
2555286057500: system.switch_cpus: Raw Gem5 Running in Cycle:        53300000, Inst:        87351112
2555336157000: system.switch_cpus: Raw Gem5 Running in Cycle:        53400000, Inst:        87521345
2555386193000: system.switch_cpus: Raw Gem5 Running in Cycle:        53500000, Inst:        87686173
2555436204000: system.switch_cpus: Raw Gem5 Running in Cycle:        53600000, Inst:        87849792
2555486227000: system.switch_cpus: Raw Gem5 Running in Cycle:        53700000, Inst:        88041625
2555536526500: system.switch_cpus: Raw Gem5 Running in Cycle:        53800000, Inst:        88209101
2555586566500: system.switch_cpus: Raw Gem5 Running in Cycle:        53900000, Inst:        88354539
2555636610500: system.switch_cpus: Raw Gem5 Running in Cycle:        54000000, Inst:        88511464
2555686660500: system.switch_cpus: Raw Gem5 Running in Cycle:        54100000, Inst:        88676415
2555736708000: system.switch_cpus: Raw Gem5 Running in Cycle:        54200000, Inst:        88841470
2555786732000: system.switch_cpus: Raw Gem5 Running in Cycle:        54300000, Inst:        89001425
2555836752500: system.switch_cpus: Raw Gem5 Running in Cycle:        54400000, Inst:        89163443
2555886785000: system.switch_cpus: Raw Gem5 Running in Cycle:        54500000, Inst:        89347126
2555936855500: system.switch_cpus: Raw Gem5 Running in Cycle:        54600000, Inst:        89506769
2555986931000: system.switch_cpus: Raw Gem5 Running in Cycle:        54700000, Inst:        89672193
2556036993000: system.switch_cpus: Raw Gem5 Running in Cycle:        54800000, Inst:        89830088
2556087122000: system.switch_cpus: Raw Gem5 Running in Cycle:        54900000, Inst:        90002509
2556137159000: system.switch_cpus: Raw Gem5 Running in Cycle:        55000000, Inst:        90174063
2556187418000: system.switch_cpus: Raw Gem5 Running in Cycle:        55100000, Inst:        90346691
2556237455000: system.switch_cpus: Raw Gem5 Running in Cycle:        55200000, Inst:        90534575
2556287645000: system.switch_cpus: Raw Gem5 Running in Cycle:        55300000, Inst:        90701276
2556337675500: system.switch_cpus: Raw Gem5 Running in Cycle:        55400000, Inst:        90864782
2556387704000: system.switch_cpus: Raw Gem5 Running in Cycle:        55500000, Inst:        91010598
2556437827000: system.switch_cpus: Raw Gem5 Running in Cycle:        55600000, Inst:        91182207
2556487895500: system.switch_cpus: Raw Gem5 Running in Cycle:        55700000, Inst:        91352741
2556537947000: system.switch_cpus: Raw Gem5 Running in Cycle:        55800000, Inst:        91525455
2556587967500: system.switch_cpus: Raw Gem5 Running in Cycle:        55900000, Inst:        91688076
2556637978000: system.switch_cpus: Raw Gem5 Running in Cycle:        56000000, Inst:        91868387
2556688083500: system.switch_cpus: Raw Gem5 Running in Cycle:        56100000, Inst:        92047916
2556738360000: system.switch_cpus: Raw Gem5 Running in Cycle:        56200000, Inst:        92210181
2556788401500: system.switch_cpus: Raw Gem5 Running in Cycle:        56300000, Inst:        92388218
2556838431000: system.switch_cpus: Raw Gem5 Running in Cycle:        56400000, Inst:        92577435
2556888473000: system.switch_cpus: Raw Gem5 Running in Cycle:        56500000, Inst:        92748454
2556938538500: system.switch_cpus: Raw Gem5 Running in Cycle:        56600000, Inst:        92907768
2556988636500: system.switch_cpus: Raw Gem5 Running in Cycle:        56700000, Inst:        93076866
2557038707000: system.switch_cpus: Raw Gem5 Running in Cycle:        56800000, Inst:        93243872
2557088817500: system.switch_cpus: Raw Gem5 Running in Cycle:        56900000, Inst:        93401955
2557139081500: system.switch_cpus: Raw Gem5 Running in Cycle:        57000000, Inst:        93551953
2557189173500: system.switch_cpus: Raw Gem5 Running in Cycle:        57100000, Inst:        93716697
2557239227000: system.switch_cpus: Raw Gem5 Running in Cycle:        57200000, Inst:        93889645
2557289238500: system.switch_cpus: Raw Gem5 Running in Cycle:        57300000, Inst:        94084127
2557339331000: system.switch_cpus: Raw Gem5 Running in Cycle:        57400000, Inst:        94236550
2557389389000: system.switch_cpus: Raw Gem5 Running in Cycle:        57500000, Inst:        94396878
2557439419500: system.switch_cpus: Raw Gem5 Running in Cycle:        57600000, Inst:        94573495
2557489450500: system.switch_cpus: Raw Gem5 Running in Cycle:        57700000, Inst:        94745639
2557539664000: system.switch_cpus: Raw Gem5 Running in Cycle:        57800000, Inst:        94917070
2557589718000: system.switch_cpus: Raw Gem5 Running in Cycle:        57900000, Inst:        95065637
2557639743500: system.switch_cpus: Raw Gem5 Running in Cycle:        58000000, Inst:        95226425
2557689792000: system.switch_cpus: Raw Gem5 Running in Cycle:        58100000, Inst:        95398255
2557739805000: system.switch_cpus: Raw Gem5 Running in Cycle:        58200000, Inst:        95564542
2557789807000: system.switch_cpus: Raw Gem5 Running in Cycle:        58300000, Inst:        95732372
2557839838000: system.switch_cpus: Raw Gem5 Running in Cycle:        58400000, Inst:        95918985
2557889877000: system.switch_cpus: Raw Gem5 Running in Cycle:        58500000, Inst:        96077546
2557939933500: system.switch_cpus: Raw Gem5 Running in Cycle:        58600000, Inst:        96238573
2557989963000: system.switch_cpus: Raw Gem5 Running in Cycle:        58700000, Inst:        96408113
2558039994000: system.switch_cpus: Raw Gem5 Running in Cycle:        58800000, Inst:        96575541
2558090245000: system.switch_cpus: Raw Gem5 Running in Cycle:        58900000, Inst:        96749668
2558140603000: system.switch_cpus: Raw Gem5 Running in Cycle:        59000000, Inst:        96948921
2558190669000: system.switch_cpus: Raw Gem5 Running in Cycle:        59100000, Inst:        97093862
2558240727000: system.switch_cpus: Raw Gem5 Running in Cycle:        59200000, Inst:        97254708
2558291090000: system.switch_cpus: Raw Gem5 Running in Cycle:        59300000, Inst:        97426357
2558341380000: system.switch_cpus: Raw Gem5 Running in Cycle:        59400000, Inst:        97591571
2558391407000: system.switch_cpus: Raw Gem5 Running in Cycle:        59500000, Inst:        97765790
2558441519500: system.switch_cpus: Raw Gem5 Running in Cycle:        59600000, Inst:        97937566
2558491551000: system.switch_cpus: Raw Gem5 Running in Cycle:        59700000, Inst:        98095748
2558541576000: system.switch_cpus: Raw Gem5 Running in Cycle:        59800000, Inst:        98267331
2558591699500: system.switch_cpus: Raw Gem5 Running in Cycle:        59900000, Inst:        98430959
2558641707500: system.switch_cpus: Raw Gem5 Running in Cycle:        60000000, Inst:        98654805
2558691752000: system.switch_cpus: Raw Gem5 Running in Cycle:        60100000, Inst:        98856936
2558741908500: system.switch_cpus: Raw Gem5 Running in Cycle:        60200000, Inst:        99018595
2558791909000: system.switch_cpus: Raw Gem5 Running in Cycle:        60300000, Inst:        99197168
2558841920500: system.switch_cpus: Raw Gem5 Running in Cycle:        60400000, Inst:        99362145
2558891941500: system.switch_cpus: Raw Gem5 Running in Cycle:        60500000, Inst:        99553731
2558942041500: system.switch_cpus: Raw Gem5 Running in Cycle:        60600000, Inst:        99708775
2558992257500: system.switch_cpus: Raw Gem5 Running in Cycle:        60700000, Inst:        99863920
Exiting @ tick 2559035918500 because a thread reached the max instruction count
end time:(year-mon-day hour-minute-second)19-03-30 20-39-51
