
******************************directory****************************
spec_dir: /home/cuihongwei/experiment/mcpat-gem5-master/spec2006/benchspec/CPU2006
run_dir:  /home/cuihongwei/experiment/mcpat-gem5-master/spec2006/benchspec/CPU2006/401.bzip2/run/run_base_ref_amd64.0001
gem5_dir: /home/cuihongwei/experiment/experiment-gem5/raw-gem5
gem5_output_dir: /home/cuihongwei/experiment/experiment-gem5/raw-gem5/output/401.bzip2/alpha-OLD-401.bzip2-input1-190330-204107
benchmark_output:/home/cuihongwei/experiment/experiment-gem5/raw-gem5/output/401.bzip2/alpha-OLD-401.bzip2-input1-190330-204107
checkpoint_dir:/home/cuihongwei/experiment/experiment-gem5/pubs-gem5/output/alpha-401.bzip2-checkpoint-input1

******************************benchmark****************************
target:     401.bzip2
executable: bzip2
args:       input.source 280
input:      
output:     /home/cuihongwei/experiment/experiment-gem5/raw-gem5/output/401.bzip2/alpha-OLD-401.bzip2-input1-190330-204107/input.source.out
errout:     /home/cuihongwei/experiment/experiment-gem5/raw-gem5/output/401.bzip2/alpha-OLD-401.bzip2-input1-190330-204107/input.source.err

******************************gem5****************************
arch:       /home/cuihongwei/experiment/experiment-gem5/raw-gem5/build/ALPHA/gem5.opt
config:     /home/cuihongwei/experiment/experiment-gem5/raw-gem5/configs/example/se.py
args:       --num-cpus=1 --mem-size=8GB --caches --l1d_size=32kB --l1d_assoc=8 --l1i_size=32kB --l1i_assoc=8 --l2cache --l2_size=2MB --l2_assoc=16 --at-instruction --checkpoint-restore=5000000000 --maxinsts=100000000 --cpu-type=DerivO3CPU
debugFlag:  --debug-flags=ShowRunning

******************************simulation****************************
start time:(year-mon-day hour-minute-second)19-03-30 20-41-07
gem5 Simulator System.  http://gem5.org
gem5 is copyrighted software; use the --copyright option for details.

gem5 compiled Mar 30 2019 20:24:53
gem5 started Mar 30 2019 20:41:07
gem5 executing on mprc-R730, pid 15771
command line: /home/cuihongwei/experiment/experiment-gem5/raw-gem5/build/ALPHA/gem5.opt --outdir=/home/cuihongwei/experiment/experiment-gem5/raw-gem5/output/401.bzip2/alpha-OLD-401.bzip2-input1-190330-204107 --debug-flags=ShowRunning /home/cuihongwei/experiment/experiment-gem5/raw-gem5/configs/example/se.py --num-cpus=1 --mem-size=8GB --caches --l1d_size=32kB --l1d_assoc=8 --l1i_size=32kB --l1i_assoc=8 --l2cache --l2_size=2MB --l2_assoc=16 --at-instruction --checkpoint-restore=5000000000 --maxinsts=100000000 --cpu-type=DerivO3CPU --checkpoint-dir=/home/cuihongwei/experiment/experiment-gem5/pubs-gem5/output/alpha-401.bzip2-checkpoint-input1 --cmd=/home/cuihongwei/experiment/mcpat-gem5-master/spec2006/benchspec/CPU2006/401.bzip2/run/build_peak_alpha.0001/bzip2 '--options=input.source 280' --output=/home/cuihongwei/experiment/experiment-gem5/raw-gem5/output/401.bzip2/alpha-OLD-401.bzip2-input1-190330-204107/input.source.out --input= --errout=/home/cuihongwei/experiment/experiment-gem5/raw-gem5/output/401.bzip2/alpha-OLD-401.bzip2-input1-190330-204107/input.source.err

Global frequency set at 1000000000000 ticks per second
Switch at curTick count:10000
Switched CPUS @ tick 2044718399750
switching cpus
**** REAL SIMULATION ****
2044718400500: system.switch_cpus: Raw Gem5 Running in Cycle:               0, Inst:               0
2044775166000: system.switch_cpus: Raw Gem5 Running in Cycle:          100000, Inst:          233342
2044825166000: system.switch_cpus: Raw Gem5 Running in Cycle:          200000, Inst:          491248
2044875166000: system.switch_cpus: Raw Gem5 Running in Cycle:          300000, Inst:          752456
2044925166000: system.switch_cpus: Raw Gem5 Running in Cycle:          400000, Inst:         1015193
2044975166000: system.switch_cpus: Raw Gem5 Running in Cycle:          500000, Inst:         1274777
2045025166000: system.switch_cpus: Raw Gem5 Running in Cycle:          600000, Inst:         1530559
2045075166000: system.switch_cpus: Raw Gem5 Running in Cycle:          700000, Inst:         1790410
2045125166000: system.switch_cpus: Raw Gem5 Running in Cycle:          800000, Inst:         2049655
2045175166000: system.switch_cpus: Raw Gem5 Running in Cycle:          900000, Inst:         2308945
2045225166000: system.switch_cpus: Raw Gem5 Running in Cycle:         1000000, Inst:         2568081
2045275166000: system.switch_cpus: Raw Gem5 Running in Cycle:         1100000, Inst:         2832900
2045325166000: system.switch_cpus: Raw Gem5 Running in Cycle:         1200000, Inst:         3094965
2045375166000: system.switch_cpus: Raw Gem5 Running in Cycle:         1300000, Inst:         3359930
2045425166000: system.switch_cpus: Raw Gem5 Running in Cycle:         1400000, Inst:         3622269
2045475166000: system.switch_cpus: Raw Gem5 Running in Cycle:         1500000, Inst:         3881485
2045525166000: system.switch_cpus: Raw Gem5 Running in Cycle:         1600000, Inst:         4140337
2045575166000: system.switch_cpus: Raw Gem5 Running in Cycle:         1700000, Inst:         4395133
2045625166000: system.switch_cpus: Raw Gem5 Running in Cycle:         1800000, Inst:         4654406
2045675166000: system.switch_cpus: Raw Gem5 Running in Cycle:         1900000, Inst:         4914589
2045725166000: system.switch_cpus: Raw Gem5 Running in Cycle:         2000000, Inst:         5179862
2045775166000: system.switch_cpus: Raw Gem5 Running in Cycle:         2100000, Inst:         5446254
2045825166000: system.switch_cpus: Raw Gem5 Running in Cycle:         2200000, Inst:         5713558
2045875166000: system.switch_cpus: Raw Gem5 Running in Cycle:         2300000, Inst:         5975251
2045925166000: system.switch_cpus: Raw Gem5 Running in Cycle:         2400000, Inst:         6235084
2045975166000: system.switch_cpus: Raw Gem5 Running in Cycle:         2500000, Inst:         6490892
2046025166000: system.switch_cpus: Raw Gem5 Running in Cycle:         2600000, Inst:         6750037
2046075166000: system.switch_cpus: Raw Gem5 Running in Cycle:         2700000, Inst:         7011449
2046125166000: system.switch_cpus: Raw Gem5 Running in Cycle:         2800000, Inst:         7272861
2046175166000: system.switch_cpus: Raw Gem5 Running in Cycle:         2900000, Inst:         7536605
2046225166000: system.switch_cpus: Raw Gem5 Running in Cycle:         3000000, Inst:         7797876
2046275166000: system.switch_cpus: Raw Gem5 Running in Cycle:         3100000, Inst:         8063179
2046325166000: system.switch_cpus: Raw Gem5 Running in Cycle:         3200000, Inst:         8323477
2046375987000: system.switch_cpus: Raw Gem5 Running in Cycle:         3300000, Inst:         8560247
2046425987000: system.switch_cpus: Raw Gem5 Running in Cycle:         3400000, Inst:         8738077
2046475987000: system.switch_cpus: Raw Gem5 Running in Cycle:         3500000, Inst:         8917595
2046526683000: system.switch_cpus: Raw Gem5 Running in Cycle:         3600000, Inst:         9156257
2046576683000: system.switch_cpus: Raw Gem5 Running in Cycle:         3700000, Inst:         9412039
2046626683000: system.switch_cpus: Raw Gem5 Running in Cycle:         3800000, Inst:         9671959
2046676683000: system.switch_cpus: Raw Gem5 Running in Cycle:         3900000, Inst:         9979929
2046726683000: system.switch_cpus: Raw Gem5 Running in Cycle:         4000000, Inst:        10361223
2046776683000: system.switch_cpus: Raw Gem5 Running in Cycle:         4100000, Inst:        10741256
2046826683000: system.switch_cpus: Raw Gem5 Running in Cycle:         4200000, Inst:        11121983
2046876683000: system.switch_cpus: Raw Gem5 Running in Cycle:         4300000, Inst:        11503165
2046926683000: system.switch_cpus: Raw Gem5 Running in Cycle:         4400000, Inst:        11885682
2046976683000: system.switch_cpus: Raw Gem5 Running in Cycle:         4500000, Inst:        12266316
2047026683000: system.switch_cpus: Raw Gem5 Running in Cycle:         4600000, Inst:        12647695
2047076683000: system.switch_cpus: Raw Gem5 Running in Cycle:         4700000, Inst:        13029859
2047126683000: system.switch_cpus: Raw Gem5 Running in Cycle:         4800000, Inst:        13413690
2047176683000: system.switch_cpus: Raw Gem5 Running in Cycle:         4900000, Inst:        13796981
2047226683000: system.switch_cpus: Raw Gem5 Running in Cycle:         5000000, Inst:        14181455
2047276683000: system.switch_cpus: Raw Gem5 Running in Cycle:         5100000, Inst:        14564573
2047326683000: system.switch_cpus: Raw Gem5 Running in Cycle:         5200000, Inst:        14946888
2047376683000: system.switch_cpus: Raw Gem5 Running in Cycle:         5300000, Inst:        15332201
2047426683000: system.switch_cpus: Raw Gem5 Running in Cycle:         5400000, Inst:        15717269
2047476683000: system.switch_cpus: Raw Gem5 Running in Cycle:         5500000, Inst:        16100468
2047526683000: system.switch_cpus: Raw Gem5 Running in Cycle:         5600000, Inst:        16481984
2047576683000: system.switch_cpus: Raw Gem5 Running in Cycle:         5700000, Inst:        16865499
2047626683000: system.switch_cpus: Raw Gem5 Running in Cycle:         5800000, Inst:        17248147
2047676683000: system.switch_cpus: Raw Gem5 Running in Cycle:         5900000, Inst:        17631540
2047726683000: system.switch_cpus: Raw Gem5 Running in Cycle:         6000000, Inst:        18014856
2047776683000: system.switch_cpus: Raw Gem5 Running in Cycle:         6100000, Inst:        18388655
2047826683000: system.switch_cpus: Raw Gem5 Running in Cycle:         6200000, Inst:        18572265
2047876683000: system.switch_cpus: Raw Gem5 Running in Cycle:         6300000, Inst:        18746087
2047926683000: system.switch_cpus: Raw Gem5 Running in Cycle:         6400000, Inst:        19064110
2047976683000: system.switch_cpus: Raw Gem5 Running in Cycle:         6500000, Inst:        19446840
2048026683000: system.switch_cpus: Raw Gem5 Running in Cycle:         6600000, Inst:        19831077
2048076683000: system.switch_cpus: Raw Gem5 Running in Cycle:         6700000, Inst:        20212068
2048126683000: system.switch_cpus: Raw Gem5 Running in Cycle:         6800000, Inst:        20591523
2048176683000: system.switch_cpus: Raw Gem5 Running in Cycle:         6900000, Inst:        20972169
2048226683000: system.switch_cpus: Raw Gem5 Running in Cycle:         7000000, Inst:        21353524
2048276683000: system.switch_cpus: Raw Gem5 Running in Cycle:         7100000, Inst:        21735837
2048326683000: system.switch_cpus: Raw Gem5 Running in Cycle:         7200000, Inst:        22116344
2048376683000: system.switch_cpus: Raw Gem5 Running in Cycle:         7300000, Inst:        22498005
2048426683000: system.switch_cpus: Raw Gem5 Running in Cycle:         7400000, Inst:        22879858
2048476683000: system.switch_cpus: Raw Gem5 Running in Cycle:         7500000, Inst:        23263846
2048526683000: system.switch_cpus: Raw Gem5 Running in Cycle:         7600000, Inst:        23646992
2048576683000: system.switch_cpus: Raw Gem5 Running in Cycle:         7700000, Inst:        24031557
2048626683000: system.switch_cpus: Raw Gem5 Running in Cycle:         7800000, Inst:        24414937
2048676683000: system.switch_cpus: Raw Gem5 Running in Cycle:         7900000, Inst:        24793627
2048726683000: system.switch_cpus: Raw Gem5 Running in Cycle:         8000000, Inst:        25179300
2048776683000: system.switch_cpus: Raw Gem5 Running in Cycle:         8100000, Inst:        25563985
2048826683000: system.switch_cpus: Raw Gem5 Running in Cycle:         8200000, Inst:        25947443
2048876683000: system.switch_cpus: Raw Gem5 Running in Cycle:         8300000, Inst:        26331965
2048926683000: system.switch_cpus: Raw Gem5 Running in Cycle:         8400000, Inst:        26715237
2048976683000: system.switch_cpus: Raw Gem5 Running in Cycle:         8500000, Inst:        27097593
2049026683000: system.switch_cpus: Raw Gem5 Running in Cycle:         8600000, Inst:        27481005
2049076683000: system.switch_cpus: Raw Gem5 Running in Cycle:         8700000, Inst:        27865091
2049126683000: system.switch_cpus: Raw Gem5 Running in Cycle:         8800000, Inst:        28235930
2049176683000: system.switch_cpus: Raw Gem5 Running in Cycle:         8900000, Inst:        28423215
2049226683000: system.switch_cpus: Raw Gem5 Running in Cycle:         9000000, Inst:        28595195
2049276683000: system.switch_cpus: Raw Gem5 Running in Cycle:         9100000, Inst:        28915989
2049326683000: system.switch_cpus: Raw Gem5 Running in Cycle:         9200000, Inst:        29299079
2049376683000: system.switch_cpus: Raw Gem5 Running in Cycle:         9300000, Inst:        29682634
2049426683000: system.switch_cpus: Raw Gem5 Running in Cycle:         9400000, Inst:        30063893
2049476683000: system.switch_cpus: Raw Gem5 Running in Cycle:         9500000, Inst:        30444100
2049526683000: system.switch_cpus: Raw Gem5 Running in Cycle:         9600000, Inst:        30824872
2049576683000: system.switch_cpus: Raw Gem5 Running in Cycle:         9700000, Inst:        31205993
2049626683000: system.switch_cpus: Raw Gem5 Running in Cycle:         9800000, Inst:        31588548
2049676683000: system.switch_cpus: Raw Gem5 Running in Cycle:         9900000, Inst:        31968704
2049726683000: system.switch_cpus: Raw Gem5 Running in Cycle:        10000000, Inst:        32350285
2049776683000: system.switch_cpus: Raw Gem5 Running in Cycle:        10100000, Inst:        32729300
2049826683000: system.switch_cpus: Raw Gem5 Running in Cycle:        10200000, Inst:        33113412
2049876683000: system.switch_cpus: Raw Gem5 Running in Cycle:        10300000, Inst:        33496438
2049926683000: system.switch_cpus: Raw Gem5 Running in Cycle:        10400000, Inst:        33880927
2049976683000: system.switch_cpus: Raw Gem5 Running in Cycle:        10500000, Inst:        34264381
2050026683000: system.switch_cpus: Raw Gem5 Running in Cycle:        10600000, Inst:        34646217
2050076683000: system.switch_cpus: Raw Gem5 Running in Cycle:        10700000, Inst:        35031897
2050126683000: system.switch_cpus: Raw Gem5 Running in Cycle:        10800000, Inst:        35416547
2050176683000: system.switch_cpus: Raw Gem5 Running in Cycle:        10900000, Inst:        35799655
2050226683000: system.switch_cpus: Raw Gem5 Running in Cycle:        11000000, Inst:        36184105
2050276683000: system.switch_cpus: Raw Gem5 Running in Cycle:        11100000, Inst:        36567474
2050326683000: system.switch_cpus: Raw Gem5 Running in Cycle:        11200000, Inst:        36947706
2050376683000: system.switch_cpus: Raw Gem5 Running in Cycle:        11300000, Inst:        37331629
2050426683000: system.switch_cpus: Raw Gem5 Running in Cycle:        11400000, Inst:        37715215
2050476683000: system.switch_cpus: Raw Gem5 Running in Cycle:        11500000, Inst:        38082771
2050526683000: system.switch_cpus: Raw Gem5 Running in Cycle:        11600000, Inst:        38268092
2050576683000: system.switch_cpus: Raw Gem5 Running in Cycle:        11700000, Inst:        38439412
2050626683000: system.switch_cpus: Raw Gem5 Running in Cycle:        11800000, Inst:        38580159
2050677549000: system.switch_cpus: Raw Gem5 Running in Cycle:        11900000, Inst:        38748405
2050728774000: system.switch_cpus: Raw Gem5 Running in Cycle:        12000000, Inst:        38868054
2050786626500: system.switch_cpus: Raw Gem5 Running in Cycle:        12100000, Inst:        38986328
2050836626500: system.switch_cpus: Raw Gem5 Running in Cycle:        12200000, Inst:        39172339
2050886626500: system.switch_cpus: Raw Gem5 Running in Cycle:        12300000, Inst:        39355767
2050936626500: system.switch_cpus: Raw Gem5 Running in Cycle:        12400000, Inst:        39569117
2050986626500: system.switch_cpus: Raw Gem5 Running in Cycle:        12500000, Inst:        39758967
2051036626500: system.switch_cpus: Raw Gem5 Running in Cycle:        12600000, Inst:        39947678
2051086626500: system.switch_cpus: Raw Gem5 Running in Cycle:        12700000, Inst:        40142439
2051136661500: system.switch_cpus: Raw Gem5 Running in Cycle:        12800000, Inst:        40336830
2051186721500: system.switch_cpus: Raw Gem5 Running in Cycle:        12900000, Inst:        40536826
2051236743000: system.switch_cpus: Raw Gem5 Running in Cycle:        13000000, Inst:        40737104
2051286750500: system.switch_cpus: Raw Gem5 Running in Cycle:        13100000, Inst:        40936061
2051336770500: system.switch_cpus: Raw Gem5 Running in Cycle:        13200000, Inst:        41130801
2051386790000: system.switch_cpus: Raw Gem5 Running in Cycle:        13300000, Inst:        41322360
2051436809500: system.switch_cpus: Raw Gem5 Running in Cycle:        13400000, Inst:        41511073
2051486843000: system.switch_cpus: Raw Gem5 Running in Cycle:        13500000, Inst:        41705463
2051536843000: system.switch_cpus: Raw Gem5 Running in Cycle:        13600000, Inst:        41900679
2051586861500: system.switch_cpus: Raw Gem5 Running in Cycle:        13700000, Inst:        42090759
2051636871500: system.switch_cpus: Raw Gem5 Running in Cycle:        13800000, Inst:        42283819
2051686888500: system.switch_cpus: Raw Gem5 Running in Cycle:        13900000, Inst:        42471801
2051736888500: system.switch_cpus: Raw Gem5 Running in Cycle:        14000000, Inst:        42655097
2051786907000: system.switch_cpus: Raw Gem5 Running in Cycle:        14100000, Inst:        42841882
2051836937000: system.switch_cpus: Raw Gem5 Running in Cycle:        14200000, Inst:        43029499
2051886937000: system.switch_cpus: Raw Gem5 Running in Cycle:        14300000, Inst:        43222855
2051936937000: system.switch_cpus: Raw Gem5 Running in Cycle:        14400000, Inst:        43415450
2051986948500: system.switch_cpus: Raw Gem5 Running in Cycle:        14500000, Inst:        43607114
2052036976500: system.switch_cpus: Raw Gem5 Running in Cycle:        14600000, Inst:        43813559
2052086993500: system.switch_cpus: Raw Gem5 Running in Cycle:        14700000, Inst:        44013265
2052136993500: system.switch_cpus: Raw Gem5 Running in Cycle:        14800000, Inst:        44210248
2052187015500: system.switch_cpus: Raw Gem5 Running in Cycle:        14900000, Inst:        44409868
2052237015500: system.switch_cpus: Raw Gem5 Running in Cycle:        15000000, Inst:        44608140
2052287051000: system.switch_cpus: Raw Gem5 Running in Cycle:        15100000, Inst:        44796324
2052337069000: system.switch_cpus: Raw Gem5 Running in Cycle:        15200000, Inst:        44997841
2052387074000: system.switch_cpus: Raw Gem5 Running in Cycle:        15300000, Inst:        45192392
2052437076500: system.switch_cpus: Raw Gem5 Running in Cycle:        15400000, Inst:        45389500
2052487099000: system.switch_cpus: Raw Gem5 Running in Cycle:        15500000, Inst:        45591671
2052537099000: system.switch_cpus: Raw Gem5 Running in Cycle:        15600000, Inst:        45791136
2052587099000: system.switch_cpus: Raw Gem5 Running in Cycle:        15700000, Inst:        45985544
2052637129000: system.switch_cpus: Raw Gem5 Running in Cycle:        15800000, Inst:        46188560
2052687132500: system.switch_cpus: Raw Gem5 Running in Cycle:        15900000, Inst:        46384676
2052737132500: system.switch_cpus: Raw Gem5 Running in Cycle:        16000000, Inst:        46578270
2052789249000: system.switch_cpus: Raw Gem5 Running in Cycle:        16100000, Inst:        46893061
2052839249000: system.switch_cpus: Raw Gem5 Running in Cycle:        16200000, Inst:        47290985
2052889249000: system.switch_cpus: Raw Gem5 Running in Cycle:        16300000, Inst:        47681131
2052939249000: system.switch_cpus: Raw Gem5 Running in Cycle:        16400000, Inst:        48070739
2052989249000: system.switch_cpus: Raw Gem5 Running in Cycle:        16500000, Inst:        48460796
2053039249000: system.switch_cpus: Raw Gem5 Running in Cycle:        16600000, Inst:        48863970
2053089249000: system.switch_cpus: Raw Gem5 Running in Cycle:        16700000, Inst:        49249284
2053139249000: system.switch_cpus: Raw Gem5 Running in Cycle:        16800000, Inst:        49639530
2053189249000: system.switch_cpus: Raw Gem5 Running in Cycle:        16900000, Inst:        50028354
2053241128000: system.switch_cpus: Raw Gem5 Running in Cycle:        17000000, Inst:        50321164
2053291128000: system.switch_cpus: Raw Gem5 Running in Cycle:        17100000, Inst:        50599997
2053341128000: system.switch_cpus: Raw Gem5 Running in Cycle:        17200000, Inst:        50879275
2053391128000: system.switch_cpus: Raw Gem5 Running in Cycle:        17300000, Inst:        51168252
2053441128000: system.switch_cpus: Raw Gem5 Running in Cycle:        17400000, Inst:        51462927
2053491128000: system.switch_cpus: Raw Gem5 Running in Cycle:        17500000, Inst:        51744904
2053541128000: system.switch_cpus: Raw Gem5 Running in Cycle:        17600000, Inst:        52038726
2053591128000: system.switch_cpus: Raw Gem5 Running in Cycle:        17700000, Inst:        52317562
2053641128000: system.switch_cpus: Raw Gem5 Running in Cycle:        17800000, Inst:        52618195
2053691128000: system.switch_cpus: Raw Gem5 Running in Cycle:        17900000, Inst:        52919496
2053741128000: system.switch_cpus: Raw Gem5 Running in Cycle:        18000000, Inst:        53192878
2053791128000: system.switch_cpus: Raw Gem5 Running in Cycle:        18100000, Inst:        53485928
2053841128000: system.switch_cpus: Raw Gem5 Running in Cycle:        18200000, Inst:        53792600
2053891128000: system.switch_cpus: Raw Gem5 Running in Cycle:        18300000, Inst:        54099171
2053941128000: system.switch_cpus: Raw Gem5 Running in Cycle:        18400000, Inst:        54385528
2053991128000: system.switch_cpus: Raw Gem5 Running in Cycle:        18500000, Inst:        54643694
2054041128000: system.switch_cpus: Raw Gem5 Running in Cycle:        18600000, Inst:        54928764
2054091128000: system.switch_cpus: Raw Gem5 Running in Cycle:        18700000, Inst:        55244678
2054141128000: system.switch_cpus: Raw Gem5 Running in Cycle:        18800000, Inst:        55522999
2054191128000: system.switch_cpus: Raw Gem5 Running in Cycle:        18900000, Inst:        55820622
2054241128000: system.switch_cpus: Raw Gem5 Running in Cycle:        19000000, Inst:        56100073
2054291128000: system.switch_cpus: Raw Gem5 Running in Cycle:        19100000, Inst:        56402697
2054341128000: system.switch_cpus: Raw Gem5 Running in Cycle:        19200000, Inst:        56706293
2054391128000: system.switch_cpus: Raw Gem5 Running in Cycle:        19300000, Inst:        57009575
2054441128000: system.switch_cpus: Raw Gem5 Running in Cycle:        19400000, Inst:        57320729
2054491128000: system.switch_cpus: Raw Gem5 Running in Cycle:        19500000, Inst:        57655521
2054541128000: system.switch_cpus: Raw Gem5 Running in Cycle:        19600000, Inst:        57954331
2054591128000: system.switch_cpus: Raw Gem5 Running in Cycle:        19700000, Inst:        58256119
2054641128000: system.switch_cpus: Raw Gem5 Running in Cycle:        19800000, Inst:        58545855
2054691128000: system.switch_cpus: Raw Gem5 Running in Cycle:        19900000, Inst:        58844975
2054741128000: system.switch_cpus: Raw Gem5 Running in Cycle:        20000000, Inst:        59137672
2054791128000: system.switch_cpus: Raw Gem5 Running in Cycle:        20100000, Inst:        59430835
2054841128000: system.switch_cpus: Raw Gem5 Running in Cycle:        20200000, Inst:        59710615
2054891128000: system.switch_cpus: Raw Gem5 Running in Cycle:        20300000, Inst:        59985833
2054941128000: system.switch_cpus: Raw Gem5 Running in Cycle:        20400000, Inst:        60276006
2054991128000: system.switch_cpus: Raw Gem5 Running in Cycle:        20500000, Inst:        60574296
2055041128000: system.switch_cpus: Raw Gem5 Running in Cycle:        20600000, Inst:        60916493
2055091128000: system.switch_cpus: Raw Gem5 Running in Cycle:        20700000, Inst:        61188815
2055141128000: system.switch_cpus: Raw Gem5 Running in Cycle:        20800000, Inst:        61455809
2055191128000: system.switch_cpus: Raw Gem5 Running in Cycle:        20900000, Inst:        61754777
2055241128000: system.switch_cpus: Raw Gem5 Running in Cycle:        21000000, Inst:        62064106
2055291128000: system.switch_cpus: Raw Gem5 Running in Cycle:        21100000, Inst:        62338134
2055341128000: system.switch_cpus: Raw Gem5 Running in Cycle:        21200000, Inst:        62636822
2055391128000: system.switch_cpus: Raw Gem5 Running in Cycle:        21300000, Inst:        62956005
2055441128000: system.switch_cpus: Raw Gem5 Running in Cycle:        21400000, Inst:        63275319
2055491128000: system.switch_cpus: Raw Gem5 Running in Cycle:        21500000, Inst:        63583154
2055541128000: system.switch_cpus: Raw Gem5 Running in Cycle:        21600000, Inst:        63884128
2055591128000: system.switch_cpus: Raw Gem5 Running in Cycle:        21700000, Inst:        64201143
2055641128000: system.switch_cpus: Raw Gem5 Running in Cycle:        21800000, Inst:        64529357
2055691128000: system.switch_cpus: Raw Gem5 Running in Cycle:        21900000, Inst:        64847731
2055741128000: system.switch_cpus: Raw Gem5 Running in Cycle:        22000000, Inst:        65171181
2055791128000: system.switch_cpus: Raw Gem5 Running in Cycle:        22100000, Inst:        65485524
2055841128000: system.switch_cpus: Raw Gem5 Running in Cycle:        22200000, Inst:        65800696
2055891128000: system.switch_cpus: Raw Gem5 Running in Cycle:        22300000, Inst:        66096649
2055941128000: system.switch_cpus: Raw Gem5 Running in Cycle:        22400000, Inst:        66396579
2055991128000: system.switch_cpus: Raw Gem5 Running in Cycle:        22500000, Inst:        66696708
2056041128000: system.switch_cpus: Raw Gem5 Running in Cycle:        22600000, Inst:        66987950
2056091128000: system.switch_cpus: Raw Gem5 Running in Cycle:        22700000, Inst:        67285890
2056141128000: system.switch_cpus: Raw Gem5 Running in Cycle:        22800000, Inst:        67573044
2056191128000: system.switch_cpus: Raw Gem5 Running in Cycle:        22900000, Inst:        67849752
2056241128000: system.switch_cpus: Raw Gem5 Running in Cycle:        23000000, Inst:        68114758
2056291128000: system.switch_cpus: Raw Gem5 Running in Cycle:        23100000, Inst:        68432874
2056341128000: system.switch_cpus: Raw Gem5 Running in Cycle:        23200000, Inst:        68739889
2056391128000: system.switch_cpus: Raw Gem5 Running in Cycle:        23300000, Inst:        69041996
2056441128000: system.switch_cpus: Raw Gem5 Running in Cycle:        23400000, Inst:        69341493
2056491128000: system.switch_cpus: Raw Gem5 Running in Cycle:        23500000, Inst:        69637059
2056541128000: system.switch_cpus: Raw Gem5 Running in Cycle:        23600000, Inst:        69923721
2056591128000: system.switch_cpus: Raw Gem5 Running in Cycle:        23700000, Inst:        70237088
2056641128000: system.switch_cpus: Raw Gem5 Running in Cycle:        23800000, Inst:        70535700
2056691128000: system.switch_cpus: Raw Gem5 Running in Cycle:        23900000, Inst:        70834398
2056741128000: system.switch_cpus: Raw Gem5 Running in Cycle:        24000000, Inst:        71133231
2056791128000: system.switch_cpus: Raw Gem5 Running in Cycle:        24100000, Inst:        71416833
2056841128000: system.switch_cpus: Raw Gem5 Running in Cycle:        24200000, Inst:        71728295
2056891128000: system.switch_cpus: Raw Gem5 Running in Cycle:        24300000, Inst:        72024952
2056941128000: system.switch_cpus: Raw Gem5 Running in Cycle:        24400000, Inst:        72333034
2056991128000: system.switch_cpus: Raw Gem5 Running in Cycle:        24500000, Inst:        72628670
2057041128000: system.switch_cpus: Raw Gem5 Running in Cycle:        24600000, Inst:        72920982
2057091128000: system.switch_cpus: Raw Gem5 Running in Cycle:        24700000, Inst:        73217208
2057141128000: system.switch_cpus: Raw Gem5 Running in Cycle:        24800000, Inst:        73494792
2057191128000: system.switch_cpus: Raw Gem5 Running in Cycle:        24900000, Inst:        73803540
2057241128000: system.switch_cpus: Raw Gem5 Running in Cycle:        25000000, Inst:        74110625
2057291128000: system.switch_cpus: Raw Gem5 Running in Cycle:        25100000, Inst:        74407213
2057341128000: system.switch_cpus: Raw Gem5 Running in Cycle:        25200000, Inst:        74725379
2057391128000: system.switch_cpus: Raw Gem5 Running in Cycle:        25300000, Inst:        75023638
2057441128000: system.switch_cpus: Raw Gem5 Running in Cycle:        25400000, Inst:        75302112
2057491128000: system.switch_cpus: Raw Gem5 Running in Cycle:        25500000, Inst:        75568740
2057541128000: system.switch_cpus: Raw Gem5 Running in Cycle:        25600000, Inst:        75892942
2057591128000: system.switch_cpus: Raw Gem5 Running in Cycle:        25700000, Inst:        76191353
2057641128000: system.switch_cpus: Raw Gem5 Running in Cycle:        25800000, Inst:        76489873
2057691485500: system.switch_cpus: Raw Gem5 Running in Cycle:        25900000, Inst:        76773782
2057741485500: system.switch_cpus: Raw Gem5 Running in Cycle:        26000000, Inst:        76894342
2057791485500: system.switch_cpus: Raw Gem5 Running in Cycle:        26100000, Inst:        77015210
2057842303000: system.switch_cpus: Raw Gem5 Running in Cycle:        26200000, Inst:        77140809
2057892303000: system.switch_cpus: Raw Gem5 Running in Cycle:        26300000, Inst:        77279034
2057942303000: system.switch_cpus: Raw Gem5 Running in Cycle:        26400000, Inst:        77415107
2057992303000: system.switch_cpus: Raw Gem5 Running in Cycle:        26500000, Inst:        77549321
2058042303000: system.switch_cpus: Raw Gem5 Running in Cycle:        26600000, Inst:        77688680
2058092303000: system.switch_cpus: Raw Gem5 Running in Cycle:        26700000, Inst:        77825544
2058142303000: system.switch_cpus: Raw Gem5 Running in Cycle:        26800000, Inst:        77962824
2058192303000: system.switch_cpus: Raw Gem5 Running in Cycle:        26900000, Inst:        78106761
2058242303000: system.switch_cpus: Raw Gem5 Running in Cycle:        27000000, Inst:        78251082
2058292303000: system.switch_cpus: Raw Gem5 Running in Cycle:        27100000, Inst:        78389962
2058342303000: system.switch_cpus: Raw Gem5 Running in Cycle:        27200000, Inst:        78530362
2058392303000: system.switch_cpus: Raw Gem5 Running in Cycle:        27300000, Inst:        78675076
2058442303000: system.switch_cpus: Raw Gem5 Running in Cycle:        27400000, Inst:        78810526
2058492303000: system.switch_cpus: Raw Gem5 Running in Cycle:        27500000, Inst:        78951574
2058542303000: system.switch_cpus: Raw Gem5 Running in Cycle:        27600000, Inst:        79096424
2058592303000: system.switch_cpus: Raw Gem5 Running in Cycle:        27700000, Inst:        79235784
2058642303000: system.switch_cpus: Raw Gem5 Running in Cycle:        27800000, Inst:        79370226
2058692303000: system.switch_cpus: Raw Gem5 Running in Cycle:        27900000, Inst:        79512796
2058742303000: system.switch_cpus: Raw Gem5 Running in Cycle:        28000000, Inst:        79651158
2058792303000: system.switch_cpus: Raw Gem5 Running in Cycle:        28100000, Inst:        79792910
2058842303000: system.switch_cpus: Raw Gem5 Running in Cycle:        28200000, Inst:        79933986
2058892303000: system.switch_cpus: Raw Gem5 Running in Cycle:        28300000, Inst:        80072652
2058942303000: system.switch_cpus: Raw Gem5 Running in Cycle:        28400000, Inst:        80216296
2058992303000: system.switch_cpus: Raw Gem5 Running in Cycle:        28500000, Inst:        80356614
2059042303000: system.switch_cpus: Raw Gem5 Running in Cycle:        28600000, Inst:        80494350
2059092303000: system.switch_cpus: Raw Gem5 Running in Cycle:        28700000, Inst:        80633576
2059142303000: system.switch_cpus: Raw Gem5 Running in Cycle:        28800000, Inst:        80768328
2059192303000: system.switch_cpus: Raw Gem5 Running in Cycle:        28900000, Inst:        80904071
2059242303000: system.switch_cpus: Raw Gem5 Running in Cycle:        29000000, Inst:        81035423
2059292303000: system.switch_cpus: Raw Gem5 Running in Cycle:        29100000, Inst:        81174898
2059342303000: system.switch_cpus: Raw Gem5 Running in Cycle:        29200000, Inst:        81312206
2059392303000: system.switch_cpus: Raw Gem5 Running in Cycle:        29300000, Inst:        81443892
2059442303000: system.switch_cpus: Raw Gem5 Running in Cycle:        29400000, Inst:        81575818
2059492303000: system.switch_cpus: Raw Gem5 Running in Cycle:        29500000, Inst:        81709214
2059542303000: system.switch_cpus: Raw Gem5 Running in Cycle:        29600000, Inst:        81841867
2059592303000: system.switch_cpus: Raw Gem5 Running in Cycle:        29700000, Inst:        81982902
2059642303000: system.switch_cpus: Raw Gem5 Running in Cycle:        29800000, Inst:        82112612
2059692303000: system.switch_cpus: Raw Gem5 Running in Cycle:        29900000, Inst:        82242216
2059742303000: system.switch_cpus: Raw Gem5 Running in Cycle:        30000000, Inst:        82373524
2059792303000: system.switch_cpus: Raw Gem5 Running in Cycle:        30100000, Inst:        82506376
2059842303000: system.switch_cpus: Raw Gem5 Running in Cycle:        30200000, Inst:        82647400
2059892303000: system.switch_cpus: Raw Gem5 Running in Cycle:        30300000, Inst:        82785534
2059942303000: system.switch_cpus: Raw Gem5 Running in Cycle:        30400000, Inst:        82912808
2059992303000: system.switch_cpus: Raw Gem5 Running in Cycle:        30500000, Inst:        83024692
2060042303000: system.switch_cpus: Raw Gem5 Running in Cycle:        30600000, Inst:        83138280
2060092303000: system.switch_cpus: Raw Gem5 Running in Cycle:        30700000, Inst:        83247230
2060142303000: system.switch_cpus: Raw Gem5 Running in Cycle:        30800000, Inst:        83343504
2060192303000: system.switch_cpus: Raw Gem5 Running in Cycle:        30900000, Inst:        83450697
2060242303000: system.switch_cpus: Raw Gem5 Running in Cycle:        31000000, Inst:        83558576
2060292830000: system.switch_cpus: Raw Gem5 Running in Cycle:        31100000, Inst:        83667925
2060342830000: system.switch_cpus: Raw Gem5 Running in Cycle:        31200000, Inst:        83775627
2060392830000: system.switch_cpus: Raw Gem5 Running in Cycle:        31300000, Inst:        83883220
2060442830000: system.switch_cpus: Raw Gem5 Running in Cycle:        31400000, Inst:        83990712
2060492830000: system.switch_cpus: Raw Gem5 Running in Cycle:        31500000, Inst:        84050705
2060542830000: system.switch_cpus: Raw Gem5 Running in Cycle:        31600000, Inst:        84070324
2060592830000: system.switch_cpus: Raw Gem5 Running in Cycle:        31700000, Inst:        84097226
2060642830000: system.switch_cpus: Raw Gem5 Running in Cycle:        31800000, Inst:        84122255
2060692830000: system.switch_cpus: Raw Gem5 Running in Cycle:        31900000, Inst:        84148175
2060742830000: system.switch_cpus: Raw Gem5 Running in Cycle:        32000000, Inst:        84167804
2060792830000: system.switch_cpus: Raw Gem5 Running in Cycle:        32100000, Inst:        84193477
2060842830000: system.switch_cpus: Raw Gem5 Running in Cycle:        32200000, Inst:        84224180
2060892830000: system.switch_cpus: Raw Gem5 Running in Cycle:        32300000, Inst:        84255084
2060942830000: system.switch_cpus: Raw Gem5 Running in Cycle:        32400000, Inst:        84280950
2060992830000: system.switch_cpus: Raw Gem5 Running in Cycle:        32500000, Inst:        84307414
2061042830000: system.switch_cpus: Raw Gem5 Running in Cycle:        32600000, Inst:        84332416
2061092830000: system.switch_cpus: Raw Gem5 Running in Cycle:        32700000, Inst:        84357641
2061142830000: system.switch_cpus: Raw Gem5 Running in Cycle:        32800000, Inst:        84380880
2061192830000: system.switch_cpus: Raw Gem5 Running in Cycle:        32900000, Inst:        84405084
2061242830000: system.switch_cpus: Raw Gem5 Running in Cycle:        33000000, Inst:        84429191
2061292830000: system.switch_cpus: Raw Gem5 Running in Cycle:        33100000, Inst:        84455863
2061342830000: system.switch_cpus: Raw Gem5 Running in Cycle:        33200000, Inst:        84479990
2061392830000: system.switch_cpus: Raw Gem5 Running in Cycle:        33300000, Inst:        84506724
2061442830000: system.switch_cpus: Raw Gem5 Running in Cycle:        33400000, Inst:        84533423
2061492830000: system.switch_cpus: Raw Gem5 Running in Cycle:        33500000, Inst:        84560022
2061542830000: system.switch_cpus: Raw Gem5 Running in Cycle:        33600000, Inst:        84591783
2061592830000: system.switch_cpus: Raw Gem5 Running in Cycle:        33700000, Inst:        84623371
2061642830000: system.switch_cpus: Raw Gem5 Running in Cycle:        33800000, Inst:        84648107
2061692830000: system.switch_cpus: Raw Gem5 Running in Cycle:        33900000, Inst:        84687138
2061742830000: system.switch_cpus: Raw Gem5 Running in Cycle:        34000000, Inst:        84716957
2061792830000: system.switch_cpus: Raw Gem5 Running in Cycle:        34100000, Inst:        84741095
2061842830000: system.switch_cpus: Raw Gem5 Running in Cycle:        34200000, Inst:        84771594
2061892830000: system.switch_cpus: Raw Gem5 Running in Cycle:        34300000, Inst:        84802294
2061942830000: system.switch_cpus: Raw Gem5 Running in Cycle:        34400000, Inst:        84829564
2061992830000: system.switch_cpus: Raw Gem5 Running in Cycle:        34500000, Inst:        84856158
2062042830000: system.switch_cpus: Raw Gem5 Running in Cycle:        34600000, Inst:        84881836
2062092830000: system.switch_cpus: Raw Gem5 Running in Cycle:        34700000, Inst:        84911789
2062142830000: system.switch_cpus: Raw Gem5 Running in Cycle:        34800000, Inst:        84938076
2062192830000: system.switch_cpus: Raw Gem5 Running in Cycle:        34900000, Inst:        84967841
2062242830000: system.switch_cpus: Raw Gem5 Running in Cycle:        35000000, Inst:        84995759
2062292830000: system.switch_cpus: Raw Gem5 Running in Cycle:        35100000, Inst:        85022640
2062342830000: system.switch_cpus: Raw Gem5 Running in Cycle:        35200000, Inst:        85054345
2062392830000: system.switch_cpus: Raw Gem5 Running in Cycle:        35300000, Inst:        85082730
2062442830000: system.switch_cpus: Raw Gem5 Running in Cycle:        35400000, Inst:        85112712
2062492830000: system.switch_cpus: Raw Gem5 Running in Cycle:        35500000, Inst:        85145140
2062542830000: system.switch_cpus: Raw Gem5 Running in Cycle:        35600000, Inst:        85173450
2062592830000: system.switch_cpus: Raw Gem5 Running in Cycle:        35700000, Inst:        85202676
2062642830000: system.switch_cpus: Raw Gem5 Running in Cycle:        35800000, Inst:        85234740
2062692830000: system.switch_cpus: Raw Gem5 Running in Cycle:        35900000, Inst:        85270110
2062742830000: system.switch_cpus: Raw Gem5 Running in Cycle:        36000000, Inst:        85299108
2062792830000: system.switch_cpus: Raw Gem5 Running in Cycle:        36100000, Inst:        85328316
2062842830000: system.switch_cpus: Raw Gem5 Running in Cycle:        36200000, Inst:        85355021
2062892830000: system.switch_cpus: Raw Gem5 Running in Cycle:        36300000, Inst:        85385257
2062942830000: system.switch_cpus: Raw Gem5 Running in Cycle:        36400000, Inst:        85414410
2062992830000: system.switch_cpus: Raw Gem5 Running in Cycle:        36500000, Inst:        85442262
2063042830000: system.switch_cpus: Raw Gem5 Running in Cycle:        36600000, Inst:        85471580
2063092830000: system.switch_cpus: Raw Gem5 Running in Cycle:        36700000, Inst:        85503348
2063142830000: system.switch_cpus: Raw Gem5 Running in Cycle:        36800000, Inst:        85535474
2063192830000: system.switch_cpus: Raw Gem5 Running in Cycle:        36900000, Inst:        85564692
2063242830000: system.switch_cpus: Raw Gem5 Running in Cycle:        37000000, Inst:        85591626
2063292830000: system.switch_cpus: Raw Gem5 Running in Cycle:        37100000, Inst:        85624458
2063342830000: system.switch_cpus: Raw Gem5 Running in Cycle:        37200000, Inst:        85659635
2063392830000: system.switch_cpus: Raw Gem5 Running in Cycle:        37300000, Inst:        85692629
2063442830000: system.switch_cpus: Raw Gem5 Running in Cycle:        37400000, Inst:        85719376
2063492830000: system.switch_cpus: Raw Gem5 Running in Cycle:        37500000, Inst:        85746895
2063542830000: system.switch_cpus: Raw Gem5 Running in Cycle:        37600000, Inst:        85777233
2063592830000: system.switch_cpus: Raw Gem5 Running in Cycle:        37700000, Inst:        85808584
2063642830000: system.switch_cpus: Raw Gem5 Running in Cycle:        37800000, Inst:        85839451
2063692830000: system.switch_cpus: Raw Gem5 Running in Cycle:        37900000, Inst:        85871246
2063742830000: system.switch_cpus: Raw Gem5 Running in Cycle:        38000000, Inst:        85901626
2063792830000: system.switch_cpus: Raw Gem5 Running in Cycle:        38100000, Inst:        85931294
2063842830000: system.switch_cpus: Raw Gem5 Running in Cycle:        38200000, Inst:        85960739
2063892830000: system.switch_cpus: Raw Gem5 Running in Cycle:        38300000, Inst:        85988796
2063942830000: system.switch_cpus: Raw Gem5 Running in Cycle:        38400000, Inst:        86017975
2063992830000: system.switch_cpus: Raw Gem5 Running in Cycle:        38500000, Inst:        86045820
2064042830000: system.switch_cpus: Raw Gem5 Running in Cycle:        38600000, Inst:        86078405
2064092830000: system.switch_cpus: Raw Gem5 Running in Cycle:        38700000, Inst:        86113036
2064142830000: system.switch_cpus: Raw Gem5 Running in Cycle:        38800000, Inst:        86143259
2064192830000: system.switch_cpus: Raw Gem5 Running in Cycle:        38900000, Inst:        86172539
2064242830000: system.switch_cpus: Raw Gem5 Running in Cycle:        39000000, Inst:        86199851
2064292830000: system.switch_cpus: Raw Gem5 Running in Cycle:        39100000, Inst:        86228106
2064342830000: system.switch_cpus: Raw Gem5 Running in Cycle:        39200000, Inst:        86259953
2064392830000: system.switch_cpus: Raw Gem5 Running in Cycle:        39300000, Inst:        86290567
2064442830000: system.switch_cpus: Raw Gem5 Running in Cycle:        39400000, Inst:        86319856
2064492830000: system.switch_cpus: Raw Gem5 Running in Cycle:        39500000, Inst:        86351014
2064542830000: system.switch_cpus: Raw Gem5 Running in Cycle:        39600000, Inst:        86384315
2064592830000: system.switch_cpus: Raw Gem5 Running in Cycle:        39700000, Inst:        86410902
2064642830000: system.switch_cpus: Raw Gem5 Running in Cycle:        39800000, Inst:        86440614
2064692830000: system.switch_cpus: Raw Gem5 Running in Cycle:        39900000, Inst:        86468366
2064742830000: system.switch_cpus: Raw Gem5 Running in Cycle:        40000000, Inst:        86501009
2064792830000: system.switch_cpus: Raw Gem5 Running in Cycle:        40100000, Inst:        86530601
2064842830000: system.switch_cpus: Raw Gem5 Running in Cycle:        40200000, Inst:        86556444
2064892830000: system.switch_cpus: Raw Gem5 Running in Cycle:        40300000, Inst:        86582850
2064942830000: system.switch_cpus: Raw Gem5 Running in Cycle:        40400000, Inst:        86612531
2064992830000: system.switch_cpus: Raw Gem5 Running in Cycle:        40500000, Inst:        86641210
2065042830000: system.switch_cpus: Raw Gem5 Running in Cycle:        40600000, Inst:        86667109
2065092830000: system.switch_cpus: Raw Gem5 Running in Cycle:        40700000, Inst:        86693940
2065142830000: system.switch_cpus: Raw Gem5 Running in Cycle:        40800000, Inst:        86722872
2065192830000: system.switch_cpus: Raw Gem5 Running in Cycle:        40900000, Inst:        86753368
2065242830000: system.switch_cpus: Raw Gem5 Running in Cycle:        41000000, Inst:        86784688
2065292830000: system.switch_cpus: Raw Gem5 Running in Cycle:        41100000, Inst:        86815860
2065342830000: system.switch_cpus: Raw Gem5 Running in Cycle:        41200000, Inst:        86846123
2065392830000: system.switch_cpus: Raw Gem5 Running in Cycle:        41300000, Inst:        86885506
2065442830000: system.switch_cpus: Raw Gem5 Running in Cycle:        41400000, Inst:        86922510
2065492830000: system.switch_cpus: Raw Gem5 Running in Cycle:        41500000, Inst:        86950198
2065542830000: system.switch_cpus: Raw Gem5 Running in Cycle:        41600000, Inst:        86976630
2065592830000: system.switch_cpus: Raw Gem5 Running in Cycle:        41700000, Inst:        87001934
2065642830000: system.switch_cpus: Raw Gem5 Running in Cycle:        41800000, Inst:        87028373
2065692830000: system.switch_cpus: Raw Gem5 Running in Cycle:        41900000, Inst:        87054212
2065742830000: system.switch_cpus: Raw Gem5 Running in Cycle:        42000000, Inst:        87080969
2065792830000: system.switch_cpus: Raw Gem5 Running in Cycle:        42100000, Inst:        87106272
2065842830000: system.switch_cpus: Raw Gem5 Running in Cycle:        42200000, Inst:        87132246
2065892830000: system.switch_cpus: Raw Gem5 Running in Cycle:        42300000, Inst:        87161190
2065942830000: system.switch_cpus: Raw Gem5 Running in Cycle:        42400000, Inst:        87189256
2065992830000: system.switch_cpus: Raw Gem5 Running in Cycle:        42500000, Inst:        87219583
2066042830000: system.switch_cpus: Raw Gem5 Running in Cycle:        42600000, Inst:        87246766
2066092830000: system.switch_cpus: Raw Gem5 Running in Cycle:        42700000, Inst:        87272484
2066142830000: system.switch_cpus: Raw Gem5 Running in Cycle:        42800000, Inst:        87298336
2066192830000: system.switch_cpus: Raw Gem5 Running in Cycle:        42900000, Inst:        87325657
2066242830000: system.switch_cpus: Raw Gem5 Running in Cycle:        43000000, Inst:        87354888
2066292830000: system.switch_cpus: Raw Gem5 Running in Cycle:        43100000, Inst:        87383300
2066342830000: system.switch_cpus: Raw Gem5 Running in Cycle:        43200000, Inst:        87412033
2066392830000: system.switch_cpus: Raw Gem5 Running in Cycle:        43300000, Inst:        87440302
2066442830000: system.switch_cpus: Raw Gem5 Running in Cycle:        43400000, Inst:        87468284
2066492830000: system.switch_cpus: Raw Gem5 Running in Cycle:        43500000, Inst:        87498385
2066542830000: system.switch_cpus: Raw Gem5 Running in Cycle:        43600000, Inst:        87526296
2066592830000: system.switch_cpus: Raw Gem5 Running in Cycle:        43700000, Inst:        87554256
2066642830000: system.switch_cpus: Raw Gem5 Running in Cycle:        43800000, Inst:        87583034
2066692830000: system.switch_cpus: Raw Gem5 Running in Cycle:        43900000, Inst:        87610200
2066742830000: system.switch_cpus: Raw Gem5 Running in Cycle:        44000000, Inst:        87638677
2066792830000: system.switch_cpus: Raw Gem5 Running in Cycle:        44100000, Inst:        87664186
2066842830000: system.switch_cpus: Raw Gem5 Running in Cycle:        44200000, Inst:        87690791
2066892830000: system.switch_cpus: Raw Gem5 Running in Cycle:        44300000, Inst:        87722532
2066942830000: system.switch_cpus: Raw Gem5 Running in Cycle:        44400000, Inst:        87751487
2066992830000: system.switch_cpus: Raw Gem5 Running in Cycle:        44500000, Inst:        87780042
2067042830000: system.switch_cpus: Raw Gem5 Running in Cycle:        44600000, Inst:        87808241
2067092830000: system.switch_cpus: Raw Gem5 Running in Cycle:        44700000, Inst:        87840954
2067142830000: system.switch_cpus: Raw Gem5 Running in Cycle:        44800000, Inst:        87869855
2067192830000: system.switch_cpus: Raw Gem5 Running in Cycle:        44900000, Inst:        87895806
2067242830000: system.switch_cpus: Raw Gem5 Running in Cycle:        45000000, Inst:        87921024
2067292830000: system.switch_cpus: Raw Gem5 Running in Cycle:        45100000, Inst:        87946930
2067342830000: system.switch_cpus: Raw Gem5 Running in Cycle:        45200000, Inst:        87972324
2067392830000: system.switch_cpus: Raw Gem5 Running in Cycle:        45300000, Inst:        87997592
2067442830000: system.switch_cpus: Raw Gem5 Running in Cycle:        45400000, Inst:        88023826
2067492830000: system.switch_cpus: Raw Gem5 Running in Cycle:        45500000, Inst:        88050124
2067542830000: system.switch_cpus: Raw Gem5 Running in Cycle:        45600000, Inst:        88078812
2067592830000: system.switch_cpus: Raw Gem5 Running in Cycle:        45700000, Inst:        88105380
2067642830000: system.switch_cpus: Raw Gem5 Running in Cycle:        45800000, Inst:        88136470
2067692830000: system.switch_cpus: Raw Gem5 Running in Cycle:        45900000, Inst:        88172147
2067742830000: system.switch_cpus: Raw Gem5 Running in Cycle:        46000000, Inst:        88213878
2067792830000: system.switch_cpus: Raw Gem5 Running in Cycle:        46100000, Inst:        88249259
2067842830000: system.switch_cpus: Raw Gem5 Running in Cycle:        46200000, Inst:        88281402
2067892830000: system.switch_cpus: Raw Gem5 Running in Cycle:        46300000, Inst:        88320556
2067942830000: system.switch_cpus: Raw Gem5 Running in Cycle:        46400000, Inst:        88351859
2067992830000: system.switch_cpus: Raw Gem5 Running in Cycle:        46500000, Inst:        88393956
2068042830000: system.switch_cpus: Raw Gem5 Running in Cycle:        46600000, Inst:        88432578
2068092830000: system.switch_cpus: Raw Gem5 Running in Cycle:        46700000, Inst:        88461874
2068142830000: system.switch_cpus: Raw Gem5 Running in Cycle:        46800000, Inst:        88492298
2068192830000: system.switch_cpus: Raw Gem5 Running in Cycle:        46900000, Inst:        88525122
2068242830000: system.switch_cpus: Raw Gem5 Running in Cycle:        47000000, Inst:        88553657
2068292830000: system.switch_cpus: Raw Gem5 Running in Cycle:        47100000, Inst:        88582736
2068342830000: system.switch_cpus: Raw Gem5 Running in Cycle:        47200000, Inst:        88612156
2068392830000: system.switch_cpus: Raw Gem5 Running in Cycle:        47300000, Inst:        88642899
2068442830000: system.switch_cpus: Raw Gem5 Running in Cycle:        47400000, Inst:        88671647
2068492830000: system.switch_cpus: Raw Gem5 Running in Cycle:        47500000, Inst:        88703573
2068542830000: system.switch_cpus: Raw Gem5 Running in Cycle:        47600000, Inst:        88737026
2068592830000: system.switch_cpus: Raw Gem5 Running in Cycle:        47700000, Inst:        88767902
2068642830000: system.switch_cpus: Raw Gem5 Running in Cycle:        47800000, Inst:        88799508
2068692830000: system.switch_cpus: Raw Gem5 Running in Cycle:        47900000, Inst:        88830500
2068742830000: system.switch_cpus: Raw Gem5 Running in Cycle:        48000000, Inst:        88859426
2068792830000: system.switch_cpus: Raw Gem5 Running in Cycle:        48100000, Inst:        88889859
2068842830000: system.switch_cpus: Raw Gem5 Running in Cycle:        48200000, Inst:        88916025
2068892830000: system.switch_cpus: Raw Gem5 Running in Cycle:        48300000, Inst:        88944239
2068942830000: system.switch_cpus: Raw Gem5 Running in Cycle:        48400000, Inst:        88974533
2068992830000: system.switch_cpus: Raw Gem5 Running in Cycle:        48500000, Inst:        89002090
2069042830000: system.switch_cpus: Raw Gem5 Running in Cycle:        48600000, Inst:        89028155
2069092830000: system.switch_cpus: Raw Gem5 Running in Cycle:        48700000, Inst:        89055726
2069142830000: system.switch_cpus: Raw Gem5 Running in Cycle:        48800000, Inst:        89083015
2069192830000: system.switch_cpus: Raw Gem5 Running in Cycle:        48900000, Inst:        89109510
2069242830000: system.switch_cpus: Raw Gem5 Running in Cycle:        49000000, Inst:        89138084
2069292830000: system.switch_cpus: Raw Gem5 Running in Cycle:        49100000, Inst:        89164308
2069342830000: system.switch_cpus: Raw Gem5 Running in Cycle:        49200000, Inst:        89198110
2069392830000: system.switch_cpus: Raw Gem5 Running in Cycle:        49300000, Inst:        89229754
2069442830000: system.switch_cpus: Raw Gem5 Running in Cycle:        49400000, Inst:        89260588
2069492830000: system.switch_cpus: Raw Gem5 Running in Cycle:        49500000, Inst:        89294861
2069542830000: system.switch_cpus: Raw Gem5 Running in Cycle:        49600000, Inst:        89326090
2069592830000: system.switch_cpus: Raw Gem5 Running in Cycle:        49700000, Inst:        89356271
2069642830000: system.switch_cpus: Raw Gem5 Running in Cycle:        49800000, Inst:        89389469
2069692830000: system.switch_cpus: Raw Gem5 Running in Cycle:        49900000, Inst:        89413769
2069742830000: system.switch_cpus: Raw Gem5 Running in Cycle:        50000000, Inst:        89438950
2069792830000: system.switch_cpus: Raw Gem5 Running in Cycle:        50100000, Inst:        89467098
2069842830000: system.switch_cpus: Raw Gem5 Running in Cycle:        50200000, Inst:        89496082
2069892830000: system.switch_cpus: Raw Gem5 Running in Cycle:        50300000, Inst:        89527294
2069942830000: system.switch_cpus: Raw Gem5 Running in Cycle:        50400000, Inst:        89554914
2069992830000: system.switch_cpus: Raw Gem5 Running in Cycle:        50500000, Inst:        89584098
2070042830000: system.switch_cpus: Raw Gem5 Running in Cycle:        50600000, Inst:        89614676
2070092830000: system.switch_cpus: Raw Gem5 Running in Cycle:        50700000, Inst:        89645213
2070142830000: system.switch_cpus: Raw Gem5 Running in Cycle:        50800000, Inst:        89679426
2070192830000: system.switch_cpus: Raw Gem5 Running in Cycle:        50900000, Inst:        89706762
2070242830000: system.switch_cpus: Raw Gem5 Running in Cycle:        51000000, Inst:        89731806
2070292830000: system.switch_cpus: Raw Gem5 Running in Cycle:        51100000, Inst:        89778607
2070342830000: system.switch_cpus: Raw Gem5 Running in Cycle:        51200000, Inst:        89839517
2070392830000: system.switch_cpus: Raw Gem5 Running in Cycle:        51300000, Inst:        89866536
2070442830000: system.switch_cpus: Raw Gem5 Running in Cycle:        51400000, Inst:        89894315
2070492830000: system.switch_cpus: Raw Gem5 Running in Cycle:        51500000, Inst:        89921909
2070542830000: system.switch_cpus: Raw Gem5 Running in Cycle:        51600000, Inst:        89950546
2070592830000: system.switch_cpus: Raw Gem5 Running in Cycle:        51700000, Inst:        89979635
2070642830000: system.switch_cpus: Raw Gem5 Running in Cycle:        51800000, Inst:        90007781
2070692830000: system.switch_cpus: Raw Gem5 Running in Cycle:        51900000, Inst:        90037284
2070742830000: system.switch_cpus: Raw Gem5 Running in Cycle:        52000000, Inst:        90064955
2070792830000: system.switch_cpus: Raw Gem5 Running in Cycle:        52100000, Inst:        90096912
2070842830000: system.switch_cpus: Raw Gem5 Running in Cycle:        52200000, Inst:        90128887
2070892830000: system.switch_cpus: Raw Gem5 Running in Cycle:        52300000, Inst:        90157068
2070942830000: system.switch_cpus: Raw Gem5 Running in Cycle:        52400000, Inst:        90185568
2070992830000: system.switch_cpus: Raw Gem5 Running in Cycle:        52500000, Inst:        90214940
2071042830000: system.switch_cpus: Raw Gem5 Running in Cycle:        52600000, Inst:        90244440
2071092830000: system.switch_cpus: Raw Gem5 Running in Cycle:        52700000, Inst:        90274896
2071142830000: system.switch_cpus: Raw Gem5 Running in Cycle:        52800000, Inst:        90308566
2071192830000: system.switch_cpus: Raw Gem5 Running in Cycle:        52900000, Inst:        90345537
2071242830000: system.switch_cpus: Raw Gem5 Running in Cycle:        53000000, Inst:        90378144
2071292830000: system.switch_cpus: Raw Gem5 Running in Cycle:        53100000, Inst:        90413039
2071342830000: system.switch_cpus: Raw Gem5 Running in Cycle:        53200000, Inst:        90441700
2071392830000: system.switch_cpus: Raw Gem5 Running in Cycle:        53300000, Inst:        90468258
2071442830000: system.switch_cpus: Raw Gem5 Running in Cycle:        53400000, Inst:        90497418
2071492830000: system.switch_cpus: Raw Gem5 Running in Cycle:        53500000, Inst:        90526104
2071542830000: system.switch_cpus: Raw Gem5 Running in Cycle:        53600000, Inst:        90553092
2071592830000: system.switch_cpus: Raw Gem5 Running in Cycle:        53700000, Inst:        90582264
2071642830000: system.switch_cpus: Raw Gem5 Running in Cycle:        53800000, Inst:        90618185
2071692830000: system.switch_cpus: Raw Gem5 Running in Cycle:        53900000, Inst:        90647777
2071742830000: system.switch_cpus: Raw Gem5 Running in Cycle:        54000000, Inst:        90679119
2071792830000: system.switch_cpus: Raw Gem5 Running in Cycle:        54100000, Inst:        90706656
2071842830000: system.switch_cpus: Raw Gem5 Running in Cycle:        54200000, Inst:        90735342
2071892830000: system.switch_cpus: Raw Gem5 Running in Cycle:        54300000, Inst:        90764201
2071942830000: system.switch_cpus: Raw Gem5 Running in Cycle:        54400000, Inst:        90801021
2071994221000: system.switch_cpus: Raw Gem5 Running in Cycle:        54500000, Inst:        90939099
2072044221000: system.switch_cpus: Raw Gem5 Running in Cycle:        54600000, Inst:        91098998
2072094221000: system.switch_cpus: Raw Gem5 Running in Cycle:        54700000, Inst:        91224671
2072144221000: system.switch_cpus: Raw Gem5 Running in Cycle:        54800000, Inst:        91378760
2072194221000: system.switch_cpus: Raw Gem5 Running in Cycle:        54900000, Inst:        91589037
2072244221000: system.switch_cpus: Raw Gem5 Running in Cycle:        55000000, Inst:        91799573
2072294221000: system.switch_cpus: Raw Gem5 Running in Cycle:        55100000, Inst:        91991614
2072344221000: system.switch_cpus: Raw Gem5 Running in Cycle:        55200000, Inst:        92202765
2072394221000: system.switch_cpus: Raw Gem5 Running in Cycle:        55300000, Inst:        92416500
2072444221000: system.switch_cpus: Raw Gem5 Running in Cycle:        55400000, Inst:        92620017
2072494221000: system.switch_cpus: Raw Gem5 Running in Cycle:        55500000, Inst:        92821379
2072544221000: system.switch_cpus: Raw Gem5 Running in Cycle:        55600000, Inst:        93016560
2072595813000: system.switch_cpus: Raw Gem5 Running in Cycle:        55700000, Inst:        93198943
2072646301000: system.switch_cpus: Raw Gem5 Running in Cycle:        55800000, Inst:        93325082
2072696301000: system.switch_cpus: Raw Gem5 Running in Cycle:        55900000, Inst:        93505369
2072746301000: system.switch_cpus: Raw Gem5 Running in Cycle:        56000000, Inst:        93713416
2072796301000: system.switch_cpus: Raw Gem5 Running in Cycle:        56100000, Inst:        93902191
2072846301000: system.switch_cpus: Raw Gem5 Running in Cycle:        56200000, Inst:        94125562
2072896301000: system.switch_cpus: Raw Gem5 Running in Cycle:        56300000, Inst:        94317427
2072946301000: system.switch_cpus: Raw Gem5 Running in Cycle:        56400000, Inst:        94489467
2072996301000: system.switch_cpus: Raw Gem5 Running in Cycle:        56500000, Inst:        94648762
2073046301000: system.switch_cpus: Raw Gem5 Running in Cycle:        56600000, Inst:        94837004
2073096301000: system.switch_cpus: Raw Gem5 Running in Cycle:        56700000, Inst:        94954916
2073146301000: system.switch_cpus: Raw Gem5 Running in Cycle:        56800000, Inst:        95083189
2073196343500: system.switch_cpus: Raw Gem5 Running in Cycle:        56900000, Inst:        95253179
2073246343500: system.switch_cpus: Raw Gem5 Running in Cycle:        57000000, Inst:        95406505
2073296343500: system.switch_cpus: Raw Gem5 Running in Cycle:        57100000, Inst:        95525114
2073346343500: system.switch_cpus: Raw Gem5 Running in Cycle:        57200000, Inst:        95666813
2073396343500: system.switch_cpus: Raw Gem5 Running in Cycle:        57300000, Inst:        95815573
2073446343500: system.switch_cpus: Raw Gem5 Running in Cycle:        57400000, Inst:        95938669
2073496343500: system.switch_cpus: Raw Gem5 Running in Cycle:        57500000, Inst:        96127733
2073546343500: system.switch_cpus: Raw Gem5 Running in Cycle:        57600000, Inst:        96257886
2073596343500: system.switch_cpus: Raw Gem5 Running in Cycle:        57700000, Inst:        96399493
2073646343500: system.switch_cpus: Raw Gem5 Running in Cycle:        57800000, Inst:        96503838
2073696343500: system.switch_cpus: Raw Gem5 Running in Cycle:        57900000, Inst:        96661268
2073746343500: system.switch_cpus: Raw Gem5 Running in Cycle:        58000000, Inst:        96795725
2073796343500: system.switch_cpus: Raw Gem5 Running in Cycle:        58100000, Inst:        96911196
2073846343500: system.switch_cpus: Raw Gem5 Running in Cycle:        58200000, Inst:        97061875
2073896343500: system.switch_cpus: Raw Gem5 Running in Cycle:        58300000, Inst:        97181123
2073946343500: system.switch_cpus: Raw Gem5 Running in Cycle:        58400000, Inst:        97405018
2073996343500: system.switch_cpus: Raw Gem5 Running in Cycle:        58500000, Inst:        97593022
2074046343500: system.switch_cpus: Raw Gem5 Running in Cycle:        58600000, Inst:        97696508
2074096343500: system.switch_cpus: Raw Gem5 Running in Cycle:        58700000, Inst:        97804167
2074146343500: system.switch_cpus: Raw Gem5 Running in Cycle:        58800000, Inst:        97986657
2074196343500: system.switch_cpus: Raw Gem5 Running in Cycle:        58900000, Inst:        98140367
2074246343500: system.switch_cpus: Raw Gem5 Running in Cycle:        59000000, Inst:        98265329
2074296343500: system.switch_cpus: Raw Gem5 Running in Cycle:        59100000, Inst:        98398552
2074346343500: system.switch_cpus: Raw Gem5 Running in Cycle:        59200000, Inst:        98506863
2074396343500: system.switch_cpus: Raw Gem5 Running in Cycle:        59300000, Inst:        98655163
2074446343500: system.switch_cpus: Raw Gem5 Running in Cycle:        59400000, Inst:        98852012
2074496343500: system.switch_cpus: Raw Gem5 Running in Cycle:        59500000, Inst:        99055136
2074546343500: system.switch_cpus: Raw Gem5 Running in Cycle:        59600000, Inst:        99415476
2074596343500: system.switch_cpus: Raw Gem5 Running in Cycle:        59700000, Inst:        99520159
2074646343500: system.switch_cpus: Raw Gem5 Running in Cycle:        59800000, Inst:        99686785
2074696343500: system.switch_cpus: Raw Gem5 Running in Cycle:        59900000, Inst:        99838737
2074746343500: system.switch_cpus: Raw Gem5 Running in Cycle:        60000000, Inst:        99997211
Exiting @ tick 2074747018000 because a thread reached the max instruction count
end time:(year-mon-day hour-minute-second)19-03-30 20-50-02
