
---------- Begin Simulation Statistics ----------
final_tick                               2074747018000                       # Number of ticks from beginning of simulation (restored from checkpoints and never reset)
host_inst_rate                                 196455                       # Simulator instruction rate (inst/s)
host_mem_usage                                8583848                       # Number of bytes of host memory used
host_op_rate                                   196455                       # Simulator op (including micro ops) rate (op/s)
host_seconds                                   509.02                       # Real time elapsed on the host
host_tick_rate                               58992754                       # Simulator tick rate (ticks/s)
sim_freq                                 1000000000000                       # Frequency of simulated ticks
sim_insts                                   100000023                       # Number of instructions simulated
sim_ops                                     100000023                       # Number of ops (including micro ops) simulated
sim_seconds                                  0.030029                       # Number of seconds simulated
sim_ticks                                 30028628250                       # Number of ticks simulated
system.clk_domain.clock                          1000                       # Clock period in ticks
system.cpu.committedInsts                          19                       # Number of instructions committed
system.cpu.committedOps                            19                       # Number of ops (including micro ops) committed
system.cpu.dcache.ReadReq_accesses::.cpu.data            6                       # number of ReadReq accesses(hits+misses)
system.cpu.dcache.ReadReq_accesses::.switch_cpus.data     29402830                       # number of ReadReq accesses(hits+misses)
system.cpu.dcache.ReadReq_accesses::total     29402836                       # number of ReadReq accesses(hits+misses)
system.cpu.dcache.ReadReq_avg_miss_latency::.switch_cpus.data 29981.549440                       # average ReadReq miss latency
system.cpu.dcache.ReadReq_avg_miss_latency::total 29981.426553                       # average ReadReq miss latency
system.cpu.dcache.ReadReq_avg_mshr_miss_latency::.switch_cpus.data 21048.630696                       # average ReadReq mshr miss latency
system.cpu.dcache.ReadReq_avg_mshr_miss_latency::total 21048.630696                       # average ReadReq mshr miss latency
system.cpu.dcache.ReadReq_hits::.cpu.data            3                       # number of ReadReq hits
system.cpu.dcache.ReadReq_hits::.switch_cpus.data     28670901                       # number of ReadReq hits
system.cpu.dcache.ReadReq_hits::total        28670904                       # number of ReadReq hits
system.cpu.dcache.ReadReq_miss_latency::.switch_cpus.data  21944365500                       # number of ReadReq miss cycles
system.cpu.dcache.ReadReq_miss_latency::total  21944365500                       # number of ReadReq miss cycles
system.cpu.dcache.ReadReq_miss_rate::.cpu.data     0.500000                       # miss rate for ReadReq accesses
system.cpu.dcache.ReadReq_miss_rate::.switch_cpus.data     0.024893                       # miss rate for ReadReq accesses
system.cpu.dcache.ReadReq_miss_rate::total     0.024893                       # miss rate for ReadReq accesses
system.cpu.dcache.ReadReq_misses::.cpu.data            3                       # number of ReadReq misses
system.cpu.dcache.ReadReq_misses::.switch_cpus.data       731929                       # number of ReadReq misses
system.cpu.dcache.ReadReq_misses::total        731932                       # number of ReadReq misses
system.cpu.dcache.ReadReq_mshr_hits::.switch_cpus.data       425569                       # number of ReadReq MSHR hits
system.cpu.dcache.ReadReq_mshr_hits::total       425569                       # number of ReadReq MSHR hits
system.cpu.dcache.ReadReq_mshr_miss_latency::.switch_cpus.data   6448458500                       # number of ReadReq MSHR miss cycles
system.cpu.dcache.ReadReq_mshr_miss_latency::total   6448458500                       # number of ReadReq MSHR miss cycles
system.cpu.dcache.ReadReq_mshr_miss_rate::.switch_cpus.data     0.010419                       # mshr miss rate for ReadReq accesses
system.cpu.dcache.ReadReq_mshr_miss_rate::total     0.010419                       # mshr miss rate for ReadReq accesses
system.cpu.dcache.ReadReq_mshr_misses::.switch_cpus.data       306360                       # number of ReadReq MSHR misses
system.cpu.dcache.ReadReq_mshr_misses::total       306360                       # number of ReadReq MSHR misses
system.cpu.dcache.WriteReq_accesses::.switch_cpus.data     11085777                       # number of WriteReq accesses(hits+misses)
system.cpu.dcache.WriteReq_accesses::total     11085777                       # number of WriteReq accesses(hits+misses)
system.cpu.dcache.WriteReq_avg_miss_latency::.switch_cpus.data 56172.285614                       # average WriteReq miss latency
system.cpu.dcache.WriteReq_avg_miss_latency::total 56172.285614                       # average WriteReq miss latency
system.cpu.dcache.WriteReq_avg_mshr_miss_latency::.switch_cpus.data 45224.477750                       # average WriteReq mshr miss latency
system.cpu.dcache.WriteReq_avg_mshr_miss_latency::total 45224.477750                       # average WriteReq mshr miss latency
system.cpu.dcache.WriteReq_hits::.switch_cpus.data     10547319                       # number of WriteReq hits
system.cpu.dcache.WriteReq_hits::total       10547319                       # number of WriteReq hits
system.cpu.dcache.WriteReq_miss_latency::.switch_cpus.data  30246416567                       # number of WriteReq miss cycles
system.cpu.dcache.WriteReq_miss_latency::total  30246416567                       # number of WriteReq miss cycles
system.cpu.dcache.WriteReq_miss_rate::.switch_cpus.data     0.048572                       # miss rate for WriteReq accesses
system.cpu.dcache.WriteReq_miss_rate::total     0.048572                       # miss rate for WriteReq accesses
system.cpu.dcache.WriteReq_misses::.switch_cpus.data       538458                       # number of WriteReq misses
system.cpu.dcache.WriteReq_misses::total       538458                       # number of WriteReq misses
system.cpu.dcache.WriteReq_mshr_hits::.switch_cpus.data       365196                       # number of WriteReq MSHR hits
system.cpu.dcache.WriteReq_mshr_hits::total       365196                       # number of WriteReq MSHR hits
system.cpu.dcache.WriteReq_mshr_miss_latency::.switch_cpus.data   7835683464                       # number of WriteReq MSHR miss cycles
system.cpu.dcache.WriteReq_mshr_miss_latency::total   7835683464                       # number of WriteReq MSHR miss cycles
system.cpu.dcache.WriteReq_mshr_miss_rate::.switch_cpus.data     0.015629                       # mshr miss rate for WriteReq accesses
system.cpu.dcache.WriteReq_mshr_miss_rate::total     0.015629                       # mshr miss rate for WriteReq accesses
system.cpu.dcache.WriteReq_mshr_misses::.switch_cpus.data       173262                       # number of WriteReq MSHR misses
system.cpu.dcache.WriteReq_mshr_misses::total       173262                       # number of WriteReq MSHR misses
system.cpu.dcache.avg_blocked_cycles::no_mshrs    14.494566                       # average number of cycles each access was blocked
system.cpu.dcache.avg_blocked_cycles::no_targets   121.091255                       # average number of cycles each access was blocked
system.cpu.dcache.blocked::no_mshrs             79225                       # number of cycles access was blocked
system.cpu.dcache.blocked::no_targets             263                       # number of cycles access was blocked
system.cpu.dcache.blocked_cycles::no_mshrs      1148332                       # number of cycles access was blocked
system.cpu.dcache.blocked_cycles::no_targets        31847                       # number of cycles access was blocked
system.cpu.dcache.demand_accesses::.cpu.data            6                       # number of demand (read+write) accesses
system.cpu.dcache.demand_accesses::.switch_cpus.data     40488607                       # number of demand (read+write) accesses
system.cpu.dcache.demand_accesses::total     40488613                       # number of demand (read+write) accesses
system.cpu.dcache.demand_avg_miss_latency::.switch_cpus.data 41082.585123                       # average overall miss latency
system.cpu.dcache.demand_avg_miss_latency::total 41082.488108                       # average overall miss latency
system.cpu.dcache.demand_avg_mshr_miss_latency::.switch_cpus.data 29782.082482                       # average overall mshr miss latency
system.cpu.dcache.demand_avg_mshr_miss_latency::total 29782.082482                       # average overall mshr miss latency
system.cpu.dcache.demand_hits::.cpu.data            3                       # number of demand (read+write) hits
system.cpu.dcache.demand_hits::.switch_cpus.data     39218220                       # number of demand (read+write) hits
system.cpu.dcache.demand_hits::total         39218223                       # number of demand (read+write) hits
system.cpu.dcache.demand_miss_latency::.switch_cpus.data  52190782067                       # number of demand (read+write) miss cycles
system.cpu.dcache.demand_miss_latency::total  52190782067                       # number of demand (read+write) miss cycles
system.cpu.dcache.demand_miss_rate::.cpu.data     0.500000                       # miss rate for demand accesses
system.cpu.dcache.demand_miss_rate::.switch_cpus.data     0.031376                       # miss rate for demand accesses
system.cpu.dcache.demand_miss_rate::total     0.031376                       # miss rate for demand accesses
system.cpu.dcache.demand_misses::.cpu.data            3                       # number of demand (read+write) misses
system.cpu.dcache.demand_misses::.switch_cpus.data      1270387                       # number of demand (read+write) misses
system.cpu.dcache.demand_misses::total        1270390                       # number of demand (read+write) misses
system.cpu.dcache.demand_mshr_hits::.switch_cpus.data       790765                       # number of demand (read+write) MSHR hits
system.cpu.dcache.demand_mshr_hits::total       790765                       # number of demand (read+write) MSHR hits
system.cpu.dcache.demand_mshr_miss_latency::.switch_cpus.data  14284141964                       # number of demand (read+write) MSHR miss cycles
system.cpu.dcache.demand_mshr_miss_latency::total  14284141964                       # number of demand (read+write) MSHR miss cycles
system.cpu.dcache.demand_mshr_miss_rate::.switch_cpus.data     0.011846                       # mshr miss rate for demand accesses
system.cpu.dcache.demand_mshr_miss_rate::total     0.011846                       # mshr miss rate for demand accesses
system.cpu.dcache.demand_mshr_misses::.switch_cpus.data       479622                       # number of demand (read+write) MSHR misses
system.cpu.dcache.demand_mshr_misses::total       479622                       # number of demand (read+write) MSHR misses
system.cpu.dcache.overall_accesses::.cpu.data            6                       # number of overall (read+write) accesses
system.cpu.dcache.overall_accesses::.switch_cpus.data     40488607                       # number of overall (read+write) accesses
system.cpu.dcache.overall_accesses::total     40488613                       # number of overall (read+write) accesses
system.cpu.dcache.overall_avg_miss_latency::.switch_cpus.data 41082.585123                       # average overall miss latency
system.cpu.dcache.overall_avg_miss_latency::total 41082.488108                       # average overall miss latency
system.cpu.dcache.overall_avg_mshr_miss_latency::.switch_cpus.data 29782.082482                       # average overall mshr miss latency
system.cpu.dcache.overall_avg_mshr_miss_latency::total 29782.082482                       # average overall mshr miss latency
system.cpu.dcache.overall_hits::.cpu.data            3                       # number of overall hits
system.cpu.dcache.overall_hits::.switch_cpus.data     39218220                       # number of overall hits
system.cpu.dcache.overall_hits::total        39218223                       # number of overall hits
system.cpu.dcache.overall_miss_latency::.switch_cpus.data  52190782067                       # number of overall miss cycles
system.cpu.dcache.overall_miss_latency::total  52190782067                       # number of overall miss cycles
system.cpu.dcache.overall_miss_rate::.cpu.data     0.500000                       # miss rate for overall accesses
system.cpu.dcache.overall_miss_rate::.switch_cpus.data     0.031376                       # miss rate for overall accesses
system.cpu.dcache.overall_miss_rate::total     0.031376                       # miss rate for overall accesses
system.cpu.dcache.overall_misses::.cpu.data            3                       # number of overall misses
system.cpu.dcache.overall_misses::.switch_cpus.data      1270387                       # number of overall misses
system.cpu.dcache.overall_misses::total       1270390                       # number of overall misses
system.cpu.dcache.overall_mshr_hits::.switch_cpus.data       790765                       # number of overall MSHR hits
system.cpu.dcache.overall_mshr_hits::total       790765                       # number of overall MSHR hits
system.cpu.dcache.overall_mshr_miss_latency::.switch_cpus.data  14284141964                       # number of overall MSHR miss cycles
system.cpu.dcache.overall_mshr_miss_latency::total  14284141964                       # number of overall MSHR miss cycles
system.cpu.dcache.overall_mshr_miss_rate::.switch_cpus.data     0.011846                       # mshr miss rate for overall accesses
system.cpu.dcache.overall_mshr_miss_rate::total     0.011846                       # mshr miss rate for overall accesses
system.cpu.dcache.overall_mshr_misses::.switch_cpus.data       479622                       # number of overall MSHR misses
system.cpu.dcache.overall_mshr_misses::total       479622                       # number of overall MSHR misses
system.cpu.dcache.pwrStateResidencyTicks::UNDEFINED 2074747018000                       # Cumulative time (in ticks) in various power states
system.cpu.dcache.replacements                 479113                       # number of replacements
system.cpu.dcache.tags.age_task_id_blocks_1024::0           69                       # Occupied blocks per task id
system.cpu.dcache.tags.age_task_id_blocks_1024::1          441                       # Occupied blocks per task id
system.cpu.dcache.tags.age_task_id_blocks_1024::2            1                       # Occupied blocks per task id
system.cpu.dcache.tags.age_task_id_blocks_1024::3            1                       # Occupied blocks per task id
system.cpu.dcache.tags.avg_refs             82.768513                       # Average number of references to valid blocks.
system.cpu.dcache.tags.data_accesses        324388529                       # Number of data accesses
system.cpu.dcache.tags.occ_blocks::.cpu.data     0.403496                       # Average occupied blocks per requestor
system.cpu.dcache.tags.occ_blocks::.switch_cpus.data   510.671534                       # Average occupied blocks per requestor
system.cpu.dcache.tags.occ_percent::.cpu.data     0.000788                       # Average percentage of cache occupancy
system.cpu.dcache.tags.occ_percent::.switch_cpus.data     0.997405                       # Average percentage of cache occupancy
system.cpu.dcache.tags.occ_percent::total     0.998193                       # Average percentage of cache occupancy
system.cpu.dcache.tags.occ_task_id_blocks::1024          512                       # Occupied blocks per task id
system.cpu.dcache.tags.occ_task_id_percent::1024            1                       # Percentage of cache occupancy per task id
system.cpu.dcache.tags.pwrStateResidencyTicks::UNDEFINED 2074747018000                       # Cumulative time (in ticks) in various power states
system.cpu.dcache.tags.sampled_refs            479625                       # Sample count of references to valid blocks.
system.cpu.dcache.tags.tag_accesses         324388529                       # Number of tag accesses
system.cpu.dcache.tags.tagsinuse           511.075030                       # Cycle average of tags in use
system.cpu.dcache.tags.total_refs            39697848                       # Total number of references to valid blocks.
system.cpu.dcache.tags.warmup_cycle      2044718391000                       # Cycle when the warmup percentage was hit.
system.cpu.dcache.writebacks::.writebacks       400435                       # number of writebacks
system.cpu.dcache.writebacks::total            400435                       # number of writebacks
system.cpu.dtb.data_accesses                        6                       # DTB accesses
system.cpu.dtb.data_acv                             0                       # DTB access violations
system.cpu.dtb.data_hits                            6                       # DTB hits
system.cpu.dtb.data_misses                          0                       # DTB misses
system.cpu.dtb.fetch_accesses                       0                       # ITB accesses
system.cpu.dtb.fetch_acv                            0                       # ITB acv
system.cpu.dtb.fetch_hits                           0                       # ITB hits
system.cpu.dtb.fetch_misses                         0                       # ITB misses
system.cpu.dtb.pwrStateResidencyTicks::UNDEFINED 2074747018000                       # Cumulative time (in ticks) in various power states
system.cpu.dtb.read_accesses                        6                       # DTB read accesses
system.cpu.dtb.read_acv                             0                       # DTB read access violations
system.cpu.dtb.read_hits                            6                       # DTB read hits
system.cpu.dtb.read_misses                          0                       # DTB read misses
system.cpu.dtb.write_accesses                       0                       # DTB write accesses
system.cpu.dtb.write_acv                            0                       # DTB write access violations
system.cpu.dtb.write_hits                           0                       # DTB write hits
system.cpu.dtb.write_misses                         0                       # DTB write misses
system.cpu.icache.ReadReq_accesses::.cpu.inst           19                       # number of ReadReq accesses(hits+misses)
system.cpu.icache.ReadReq_accesses::.switch_cpus.inst     14800304                       # number of ReadReq accesses(hits+misses)
system.cpu.icache.ReadReq_accesses::total     14800323                       # number of ReadReq accesses(hits+misses)
system.cpu.icache.ReadReq_avg_miss_latency::.switch_cpus.inst 87874.105866                       # average ReadReq miss latency
system.cpu.icache.ReadReq_avg_miss_latency::total 87623.395150                       # average ReadReq miss latency
system.cpu.icache.ReadReq_avg_mshr_miss_latency::.switch_cpus.inst 92201.737452                       # average ReadReq mshr miss latency
system.cpu.icache.ReadReq_avg_mshr_miss_latency::total 92201.737452                       # average ReadReq mshr miss latency
system.cpu.icache.ReadReq_hits::.cpu.inst           17                       # number of ReadReq hits
system.cpu.icache.ReadReq_hits::.switch_cpus.inst     14799605                       # number of ReadReq hits
system.cpu.icache.ReadReq_hits::total        14799622                       # number of ReadReq hits
system.cpu.icache.ReadReq_miss_latency::.switch_cpus.inst     61424000                       # number of ReadReq miss cycles
system.cpu.icache.ReadReq_miss_latency::total     61424000                       # number of ReadReq miss cycles
system.cpu.icache.ReadReq_miss_rate::.cpu.inst     0.105263                       # miss rate for ReadReq accesses
system.cpu.icache.ReadReq_miss_rate::.switch_cpus.inst     0.000047                       # miss rate for ReadReq accesses
system.cpu.icache.ReadReq_miss_rate::total     0.000047                       # miss rate for ReadReq accesses
system.cpu.icache.ReadReq_misses::.cpu.inst            2                       # number of ReadReq misses
system.cpu.icache.ReadReq_misses::.switch_cpus.inst          699                       # number of ReadReq misses
system.cpu.icache.ReadReq_misses::total           701                       # number of ReadReq misses
system.cpu.icache.ReadReq_mshr_hits::.switch_cpus.inst          181                       # number of ReadReq MSHR hits
system.cpu.icache.ReadReq_mshr_hits::total          181                       # number of ReadReq MSHR hits
system.cpu.icache.ReadReq_mshr_miss_latency::.switch_cpus.inst     47760500                       # number of ReadReq MSHR miss cycles
system.cpu.icache.ReadReq_mshr_miss_latency::total     47760500                       # number of ReadReq MSHR miss cycles
system.cpu.icache.ReadReq_mshr_miss_rate::.switch_cpus.inst     0.000035                       # mshr miss rate for ReadReq accesses
system.cpu.icache.ReadReq_mshr_miss_rate::total     0.000035                       # mshr miss rate for ReadReq accesses
system.cpu.icache.ReadReq_mshr_misses::.switch_cpus.inst          518                       # number of ReadReq MSHR misses
system.cpu.icache.ReadReq_mshr_misses::total          518                       # number of ReadReq MSHR misses
system.cpu.icache.avg_blocked_cycles::no_mshrs          132                       # average number of cycles each access was blocked
system.cpu.icache.avg_blocked_cycles::no_targets          nan                       # average number of cycles each access was blocked
system.cpu.icache.blocked::no_mshrs                 1                       # number of cycles access was blocked
system.cpu.icache.blocked::no_targets               0                       # number of cycles access was blocked
system.cpu.icache.blocked_cycles::no_mshrs          132                       # number of cycles access was blocked
system.cpu.icache.blocked_cycles::no_targets            0                       # number of cycles access was blocked
system.cpu.icache.demand_accesses::.cpu.inst           19                       # number of demand (read+write) accesses
system.cpu.icache.demand_accesses::.switch_cpus.inst     14800304                       # number of demand (read+write) accesses
system.cpu.icache.demand_accesses::total     14800323                       # number of demand (read+write) accesses
system.cpu.icache.demand_avg_miss_latency::.switch_cpus.inst 87874.105866                       # average overall miss latency
system.cpu.icache.demand_avg_miss_latency::total 87623.395150                       # average overall miss latency
system.cpu.icache.demand_avg_mshr_miss_latency::.switch_cpus.inst 92201.737452                       # average overall mshr miss latency
system.cpu.icache.demand_avg_mshr_miss_latency::total 92201.737452                       # average overall mshr miss latency
system.cpu.icache.demand_hits::.cpu.inst           17                       # number of demand (read+write) hits
system.cpu.icache.demand_hits::.switch_cpus.inst     14799605                       # number of demand (read+write) hits
system.cpu.icache.demand_hits::total         14799622                       # number of demand (read+write) hits
system.cpu.icache.demand_miss_latency::.switch_cpus.inst     61424000                       # number of demand (read+write) miss cycles
system.cpu.icache.demand_miss_latency::total     61424000                       # number of demand (read+write) miss cycles
system.cpu.icache.demand_miss_rate::.cpu.inst     0.105263                       # miss rate for demand accesses
system.cpu.icache.demand_miss_rate::.switch_cpus.inst     0.000047                       # miss rate for demand accesses
system.cpu.icache.demand_miss_rate::total     0.000047                       # miss rate for demand accesses
system.cpu.icache.demand_misses::.cpu.inst            2                       # number of demand (read+write) misses
system.cpu.icache.demand_misses::.switch_cpus.inst          699                       # number of demand (read+write) misses
system.cpu.icache.demand_misses::total            701                       # number of demand (read+write) misses
system.cpu.icache.demand_mshr_hits::.switch_cpus.inst          181                       # number of demand (read+write) MSHR hits
system.cpu.icache.demand_mshr_hits::total          181                       # number of demand (read+write) MSHR hits
system.cpu.icache.demand_mshr_miss_latency::.switch_cpus.inst     47760500                       # number of demand (read+write) MSHR miss cycles
system.cpu.icache.demand_mshr_miss_latency::total     47760500                       # number of demand (read+write) MSHR miss cycles
system.cpu.icache.demand_mshr_miss_rate::.switch_cpus.inst     0.000035                       # mshr miss rate for demand accesses
system.cpu.icache.demand_mshr_miss_rate::total     0.000035                       # mshr miss rate for demand accesses
system.cpu.icache.demand_mshr_misses::.switch_cpus.inst          518                       # number of demand (read+write) MSHR misses
system.cpu.icache.demand_mshr_misses::total          518                       # number of demand (read+write) MSHR misses
system.cpu.icache.overall_accesses::.cpu.inst           19                       # number of overall (read+write) accesses
system.cpu.icache.overall_accesses::.switch_cpus.inst     14800304                       # number of overall (read+write) accesses
system.cpu.icache.overall_accesses::total     14800323                       # number of overall (read+write) accesses
system.cpu.icache.overall_avg_miss_latency::.switch_cpus.inst 87874.105866                       # average overall miss latency
system.cpu.icache.overall_avg_miss_latency::total 87623.395150                       # average overall miss latency
system.cpu.icache.overall_avg_mshr_miss_latency::.switch_cpus.inst 92201.737452                       # average overall mshr miss latency
system.cpu.icache.overall_avg_mshr_miss_latency::total 92201.737452                       # average overall mshr miss latency
system.cpu.icache.overall_hits::.cpu.inst           17                       # number of overall hits
system.cpu.icache.overall_hits::.switch_cpus.inst     14799605                       # number of overall hits
system.cpu.icache.overall_hits::total        14799622                       # number of overall hits
system.cpu.icache.overall_miss_latency::.switch_cpus.inst     61424000                       # number of overall miss cycles
system.cpu.icache.overall_miss_latency::total     61424000                       # number of overall miss cycles
system.cpu.icache.overall_miss_rate::.cpu.inst     0.105263                       # miss rate for overall accesses
system.cpu.icache.overall_miss_rate::.switch_cpus.inst     0.000047                       # miss rate for overall accesses
system.cpu.icache.overall_miss_rate::total     0.000047                       # miss rate for overall accesses
system.cpu.icache.overall_misses::.cpu.inst            2                       # number of overall misses
system.cpu.icache.overall_misses::.switch_cpus.inst          699                       # number of overall misses
system.cpu.icache.overall_misses::total           701                       # number of overall misses
system.cpu.icache.overall_mshr_hits::.switch_cpus.inst          181                       # number of overall MSHR hits
system.cpu.icache.overall_mshr_hits::total          181                       # number of overall MSHR hits
system.cpu.icache.overall_mshr_miss_latency::.switch_cpus.inst     47760500                       # number of overall MSHR miss cycles
system.cpu.icache.overall_mshr_miss_latency::total     47760500                       # number of overall MSHR miss cycles
system.cpu.icache.overall_mshr_miss_rate::.switch_cpus.inst     0.000035                       # mshr miss rate for overall accesses
system.cpu.icache.overall_mshr_miss_rate::total     0.000035                       # mshr miss rate for overall accesses
system.cpu.icache.overall_mshr_misses::.switch_cpus.inst          518                       # number of overall MSHR misses
system.cpu.icache.overall_mshr_misses::total          518                       # number of overall MSHR misses
system.cpu.icache.pwrStateResidencyTicks::UNDEFINED 2074747018000                       # Cumulative time (in ticks) in various power states
system.cpu.icache.replacements                     31                       # number of replacements
system.cpu.icache.tags.age_task_id_blocks_1024::3           81                       # Occupied blocks per task id
system.cpu.icache.tags.age_task_id_blocks_1024::4          408                       # Occupied blocks per task id
system.cpu.icache.tags.avg_refs          28461.811538                       # Average number of references to valid blocks.
system.cpu.icache.tags.data_accesses        118403104                       # Number of data accesses
system.cpu.icache.tags.occ_blocks::.cpu.inst     2.000000                       # Average occupied blocks per requestor
system.cpu.icache.tags.occ_blocks::.switch_cpus.inst   364.852083                       # Average occupied blocks per requestor
system.cpu.icache.tags.occ_percent::.cpu.inst     0.003906                       # Average percentage of cache occupancy
system.cpu.icache.tags.occ_percent::.switch_cpus.inst     0.712602                       # Average percentage of cache occupancy
system.cpu.icache.tags.occ_percent::total     0.716508                       # Average percentage of cache occupancy
system.cpu.icache.tags.occ_task_id_blocks::1024          489                       # Occupied blocks per task id
system.cpu.icache.tags.occ_task_id_percent::1024     0.955078                       # Percentage of cache occupancy per task id
system.cpu.icache.tags.pwrStateResidencyTicks::UNDEFINED 2074747018000                       # Cumulative time (in ticks) in various power states
system.cpu.icache.tags.sampled_refs               520                       # Sample count of references to valid blocks.
system.cpu.icache.tags.tag_accesses         118403104                       # Number of tag accesses
system.cpu.icache.tags.tagsinuse           366.852082                       # Cycle average of tags in use
system.cpu.icache.tags.total_refs            14800142                       # Total number of references to valid blocks.
system.cpu.icache.tags.warmup_cycle      2044718390500                       # Cycle when the warmup percentage was hit.
system.cpu.icache.writebacks::.writebacks           31                       # number of writebacks
system.cpu.icache.writebacks::total                31                       # number of writebacks
system.cpu.idle_fraction                            0                       # Percentage of idle cycles
system.cpu.itb.data_accesses                        0                       # DTB accesses
system.cpu.itb.data_acv                             0                       # DTB access violations
system.cpu.itb.data_hits                            0                       # DTB hits
system.cpu.itb.data_misses                          0                       # DTB misses
system.cpu.itb.fetch_accesses                      19                       # ITB accesses
system.cpu.itb.fetch_acv                            0                       # ITB acv
system.cpu.itb.fetch_hits                          19                       # ITB hits
system.cpu.itb.fetch_misses                         0                       # ITB misses
system.cpu.itb.pwrStateResidencyTicks::UNDEFINED 2074747018000                       # Cumulative time (in ticks) in various power states
system.cpu.itb.read_accesses                        0                       # DTB read accesses
system.cpu.itb.read_acv                             0                       # DTB read access violations
system.cpu.itb.read_hits                            0                       # DTB read hits
system.cpu.itb.read_misses                          0                       # DTB read misses
system.cpu.itb.write_accesses                       0                       # DTB write accesses
system.cpu.itb.write_acv                            0                       # DTB write access violations
system.cpu.itb.write_hits                           0                       # DTB write hits
system.cpu.itb.write_misses                         0                       # DTB write misses
system.cpu.not_idle_fraction                        1                       # Percentage of non-idle cycles
system.cpu.numCycles                               19                       # number of cpu cycles simulated
system.cpu.numPwrStateTransitions                   1                       # Number of power state transitions
system.cpu.numWorkItemsCompleted                    0                       # number of work items this cpu completed
system.cpu.numWorkItemsStarted                      0                       # number of work items this cpu started
system.cpu.num_busy_cycles                         19                       # Number of busy cycles
system.cpu.num_conditional_control_insts            0                       # number of instructions that are conditional controls
system.cpu.num_fp_alu_accesses                      0                       # Number of float alu accesses
system.cpu.num_fp_insts                             0                       # number of float instructions
system.cpu.num_fp_register_reads                    0                       # number of times the floating registers were read
system.cpu.num_fp_register_writes                   0                       # number of times the floating registers were written
system.cpu.num_func_calls                           0                       # number of times a function call or return occured
system.cpu.num_idle_cycles                          0                       # Number of idle cycles
system.cpu.num_int_alu_accesses                    19                       # Number of integer alu accesses
system.cpu.num_int_insts                           19                       # number of integer instructions
system.cpu.num_int_register_reads                  25                       # number of times the integer registers were read
system.cpu.num_int_register_writes                 19                       # number of times the integer registers were written
system.cpu.num_load_insts                           6                       # Number of load instructions
system.cpu.num_mem_refs                             6                       # number of memory refs
system.cpu.num_store_insts                          0                       # Number of store instructions
system.cpu.num_vec_alu_accesses                     0                       # Number of vector alu accesses
system.cpu.num_vec_insts                            0                       # number of vector instructions
system.cpu.num_vec_register_reads                   0                       # number of times the vector registers were read
system.cpu.num_vec_register_writes                  0                       # number of times the vector registers were written
system.cpu.op_class::No_OpClass                     0      0.00%      0.00% # Class of executed instruction
system.cpu.op_class::IntAlu                        13     68.42%     68.42% # Class of executed instruction
system.cpu.op_class::IntMult                        0      0.00%     68.42% # Class of executed instruction
system.cpu.op_class::IntDiv                         0      0.00%     68.42% # Class of executed instruction
system.cpu.op_class::FloatAdd                       0      0.00%     68.42% # Class of executed instruction
system.cpu.op_class::FloatCmp                       0      0.00%     68.42% # Class of executed instruction
system.cpu.op_class::FloatCvt                       0      0.00%     68.42% # Class of executed instruction
system.cpu.op_class::FloatMult                      0      0.00%     68.42% # Class of executed instruction
system.cpu.op_class::FloatMultAcc                   0      0.00%     68.42% # Class of executed instruction
system.cpu.op_class::FloatDiv                       0      0.00%     68.42% # Class of executed instruction
system.cpu.op_class::FloatMisc                      0      0.00%     68.42% # Class of executed instruction
system.cpu.op_class::FloatSqrt                      0      0.00%     68.42% # Class of executed instruction
system.cpu.op_class::SimdAdd                        0      0.00%     68.42% # Class of executed instruction
system.cpu.op_class::SimdAddAcc                     0      0.00%     68.42% # Class of executed instruction
system.cpu.op_class::SimdAlu                        0      0.00%     68.42% # Class of executed instruction
system.cpu.op_class::SimdCmp                        0      0.00%     68.42% # Class of executed instruction
system.cpu.op_class::SimdCvt                        0      0.00%     68.42% # Class of executed instruction
system.cpu.op_class::SimdMisc                       0      0.00%     68.42% # Class of executed instruction
system.cpu.op_class::SimdMult                       0      0.00%     68.42% # Class of executed instruction
system.cpu.op_class::SimdMultAcc                    0      0.00%     68.42% # Class of executed instruction
system.cpu.op_class::SimdShift                      0      0.00%     68.42% # Class of executed instruction
system.cpu.op_class::SimdShiftAcc                   0      0.00%     68.42% # Class of executed instruction
system.cpu.op_class::SimdSqrt                       0      0.00%     68.42% # Class of executed instruction
system.cpu.op_class::SimdFloatAdd                   0      0.00%     68.42% # Class of executed instruction
system.cpu.op_class::SimdFloatAlu                   0      0.00%     68.42% # Class of executed instruction
system.cpu.op_class::SimdFloatCmp                   0      0.00%     68.42% # Class of executed instruction
system.cpu.op_class::SimdFloatCvt                   0      0.00%     68.42% # Class of executed instruction
system.cpu.op_class::SimdFloatDiv                   0      0.00%     68.42% # Class of executed instruction
system.cpu.op_class::SimdFloatMisc                  0      0.00%     68.42% # Class of executed instruction
system.cpu.op_class::SimdFloatMult                  0      0.00%     68.42% # Class of executed instruction
system.cpu.op_class::SimdFloatMultAcc               0      0.00%     68.42% # Class of executed instruction
system.cpu.op_class::SimdFloatSqrt                  0      0.00%     68.42% # Class of executed instruction
system.cpu.op_class::SimdAes                        0      0.00%     68.42% # Class of executed instruction
system.cpu.op_class::SimdAesMix                     0      0.00%     68.42% # Class of executed instruction
system.cpu.op_class::SimdSha1Hash                   0      0.00%     68.42% # Class of executed instruction
system.cpu.op_class::SimdSha1Hash2                  0      0.00%     68.42% # Class of executed instruction
system.cpu.op_class::SimdSha256Hash                 0      0.00%     68.42% # Class of executed instruction
system.cpu.op_class::SimdSha256Hash2                0      0.00%     68.42% # Class of executed instruction
system.cpu.op_class::SimdShaSigma2                  0      0.00%     68.42% # Class of executed instruction
system.cpu.op_class::SimdShaSigma3                  0      0.00%     68.42% # Class of executed instruction
system.cpu.op_class::MemRead                        6     31.58%    100.00% # Class of executed instruction
system.cpu.op_class::MemWrite                       0      0.00%    100.00% # Class of executed instruction
system.cpu.op_class::FloatMemRead                   0      0.00%    100.00% # Class of executed instruction
system.cpu.op_class::FloatMemWrite                  0      0.00%    100.00% # Class of executed instruction
system.cpu.op_class::IprAccess                      0      0.00%    100.00% # Class of executed instruction
system.cpu.op_class::InstPrefetch                   0      0.00%    100.00% # Class of executed instruction
system.cpu.op_class::total                         19                       # Class of executed instruction
system.cpu.pwrStateResidencyTicks::ON           10000                       # Cumulative time (in ticks) in various power states
system.cpu.pwrStateResidencyTicks::OFF    30028618250                       # Cumulative time (in ticks) in various power states
system.cpu.workload.numSyscalls                     0                       # Number of system calls
system.cpu_clk_domain.clock                       500                       # Clock period in ticks
system.cpu_voltage_domain.voltage                   1                       # Voltage in Volts
system.l2.ReadCleanReq_accesses::.cpu.inst            2                       # number of ReadCleanReq accesses(hits+misses)
system.l2.ReadCleanReq_accesses::.switch_cpus.inst          518                       # number of ReadCleanReq accesses(hits+misses)
system.l2.ReadCleanReq_accesses::total            520                       # number of ReadCleanReq accesses(hits+misses)
system.l2.ReadCleanReq_avg_miss_latency::.switch_cpus.inst 90695.945946                       # average ReadCleanReq miss latency
system.l2.ReadCleanReq_avg_miss_latency::total 90347.115385                       # average ReadCleanReq miss latency
system.l2.ReadCleanReq_avg_mshr_miss_latency::.switch_cpus.inst 80695.945946                       # average ReadCleanReq mshr miss latency
system.l2.ReadCleanReq_avg_mshr_miss_latency::total 80695.945946                       # average ReadCleanReq mshr miss latency
system.l2.ReadCleanReq_miss_latency::.switch_cpus.inst     46980500                       # number of ReadCleanReq miss cycles
system.l2.ReadCleanReq_miss_latency::total     46980500                       # number of ReadCleanReq miss cycles
system.l2.ReadCleanReq_miss_rate::.cpu.inst            1                       # miss rate for ReadCleanReq accesses
system.l2.ReadCleanReq_miss_rate::.switch_cpus.inst            1                       # miss rate for ReadCleanReq accesses
system.l2.ReadCleanReq_miss_rate::total             1                       # miss rate for ReadCleanReq accesses
system.l2.ReadCleanReq_misses::.cpu.inst            2                       # number of ReadCleanReq misses
system.l2.ReadCleanReq_misses::.switch_cpus.inst          518                       # number of ReadCleanReq misses
system.l2.ReadCleanReq_misses::total              520                       # number of ReadCleanReq misses
system.l2.ReadCleanReq_mshr_miss_latency::.switch_cpus.inst     41800500                       # number of ReadCleanReq MSHR miss cycles
system.l2.ReadCleanReq_mshr_miss_latency::total     41800500                       # number of ReadCleanReq MSHR miss cycles
system.l2.ReadCleanReq_mshr_miss_rate::.switch_cpus.inst            1                       # mshr miss rate for ReadCleanReq accesses
system.l2.ReadCleanReq_mshr_miss_rate::total     0.996154                       # mshr miss rate for ReadCleanReq accesses
system.l2.ReadCleanReq_mshr_misses::.switch_cpus.inst          518                       # number of ReadCleanReq MSHR misses
system.l2.ReadCleanReq_mshr_misses::total          518                       # number of ReadCleanReq MSHR misses
system.l2.ReadExReq_accesses::.switch_cpus.data       173262                       # number of ReadExReq accesses(hits+misses)
system.l2.ReadExReq_accesses::total            173262                       # number of ReadExReq accesses(hits+misses)
system.l2.ReadExReq_avg_miss_latency::.switch_cpus.data 95055.053090                       # average ReadExReq miss latency
system.l2.ReadExReq_avg_miss_latency::total 95055.053090                       # average ReadExReq miss latency
system.l2.ReadExReq_avg_mshr_miss_latency::.switch_cpus.data 85055.053090                       # average ReadExReq mshr miss latency
system.l2.ReadExReq_avg_mshr_miss_latency::total 85055.053090                       # average ReadExReq mshr miss latency
system.l2.ReadExReq_hits::.switch_cpus.data       105264                       # number of ReadExReq hits
system.l2.ReadExReq_hits::total                105264                       # number of ReadExReq hits
system.l2.ReadExReq_miss_latency::.switch_cpus.data   6463553500                       # number of ReadExReq miss cycles
system.l2.ReadExReq_miss_latency::total    6463553500                       # number of ReadExReq miss cycles
system.l2.ReadExReq_miss_rate::.switch_cpus.data     0.392458                       # miss rate for ReadExReq accesses
system.l2.ReadExReq_miss_rate::total         0.392458                       # miss rate for ReadExReq accesses
system.l2.ReadExReq_misses::.switch_cpus.data        67998                       # number of ReadExReq misses
system.l2.ReadExReq_misses::total               67998                       # number of ReadExReq misses
system.l2.ReadExReq_mshr_miss_latency::.switch_cpus.data   5783573500                       # number of ReadExReq MSHR miss cycles
system.l2.ReadExReq_mshr_miss_latency::total   5783573500                       # number of ReadExReq MSHR miss cycles
system.l2.ReadExReq_mshr_miss_rate::.switch_cpus.data     0.392458                       # mshr miss rate for ReadExReq accesses
system.l2.ReadExReq_mshr_miss_rate::total     0.392458                       # mshr miss rate for ReadExReq accesses
system.l2.ReadExReq_mshr_misses::.switch_cpus.data        67998                       # number of ReadExReq MSHR misses
system.l2.ReadExReq_mshr_misses::total          67998                       # number of ReadExReq MSHR misses
system.l2.ReadSharedReq_accesses::.cpu.data            3                       # number of ReadSharedReq accesses(hits+misses)
system.l2.ReadSharedReq_accesses::.switch_cpus.data       306360                       # number of ReadSharedReq accesses(hits+misses)
system.l2.ReadSharedReq_accesses::total        306363                       # number of ReadSharedReq accesses(hits+misses)
system.l2.ReadSharedReq_avg_miss_latency::.switch_cpus.data 90670.734651                       # average ReadSharedReq miss latency
system.l2.ReadSharedReq_avg_miss_latency::total 90662.528659                       # average ReadSharedReq miss latency
system.l2.ReadSharedReq_avg_mshr_miss_latency::.switch_cpus.data 80670.734651                       # average ReadSharedReq mshr miss latency
system.l2.ReadSharedReq_avg_mshr_miss_latency::total 80670.734651                       # average ReadSharedReq mshr miss latency
system.l2.ReadSharedReq_hits::.switch_cpus.data       273215                       # number of ReadSharedReq hits
system.l2.ReadSharedReq_hits::total            273215                       # number of ReadSharedReq hits
system.l2.ReadSharedReq_miss_latency::.switch_cpus.data   3005281500                       # number of ReadSharedReq miss cycles
system.l2.ReadSharedReq_miss_latency::total   3005281500                       # number of ReadSharedReq miss cycles
system.l2.ReadSharedReq_miss_rate::.cpu.data            1                       # miss rate for ReadSharedReq accesses
system.l2.ReadSharedReq_miss_rate::.switch_cpus.data     0.108190                       # miss rate for ReadSharedReq accesses
system.l2.ReadSharedReq_miss_rate::total     0.108198                       # miss rate for ReadSharedReq accesses
system.l2.ReadSharedReq_misses::.cpu.data            3                       # number of ReadSharedReq misses
system.l2.ReadSharedReq_misses::.switch_cpus.data        33145                       # number of ReadSharedReq misses
system.l2.ReadSharedReq_misses::total           33148                       # number of ReadSharedReq misses
system.l2.ReadSharedReq_mshr_miss_latency::.switch_cpus.data   2673831500                       # number of ReadSharedReq MSHR miss cycles
system.l2.ReadSharedReq_mshr_miss_latency::total   2673831500                       # number of ReadSharedReq MSHR miss cycles
system.l2.ReadSharedReq_mshr_miss_rate::.switch_cpus.data     0.108190                       # mshr miss rate for ReadSharedReq accesses
system.l2.ReadSharedReq_mshr_miss_rate::total     0.108189                       # mshr miss rate for ReadSharedReq accesses
system.l2.ReadSharedReq_mshr_misses::.switch_cpus.data        33145                       # number of ReadSharedReq MSHR misses
system.l2.ReadSharedReq_mshr_misses::total        33145                       # number of ReadSharedReq MSHR misses
system.l2.WritebackClean_accesses::.writebacks           31                       # number of WritebackClean accesses(hits+misses)
system.l2.WritebackClean_accesses::total           31                       # number of WritebackClean accesses(hits+misses)
system.l2.WritebackClean_hits::.writebacks           31                       # number of WritebackClean hits
system.l2.WritebackClean_hits::total               31                       # number of WritebackClean hits
system.l2.WritebackDirty_accesses::.writebacks       400435                       # number of WritebackDirty accesses(hits+misses)
system.l2.WritebackDirty_accesses::total       400435                       # number of WritebackDirty accesses(hits+misses)
system.l2.WritebackDirty_hits::.writebacks       400435                       # number of WritebackDirty hits
system.l2.WritebackDirty_hits::total           400435                       # number of WritebackDirty hits
system.l2.avg_blocked_cycles::no_mshrs            nan                       # average number of cycles each access was blocked
system.l2.avg_blocked_cycles::no_targets          nan                       # average number of cycles each access was blocked
system.l2.blocked::no_mshrs                         0                       # number of cycles access was blocked
system.l2.blocked::no_targets                       0                       # number of cycles access was blocked
system.l2.blocked_cycles::no_mshrs                  0                       # number of cycles access was blocked
system.l2.blocked_cycles::no_targets                0                       # number of cycles access was blocked
system.l2.demand_accesses::.cpu.inst                2                       # number of demand (read+write) accesses
system.l2.demand_accesses::.cpu.data                3                       # number of demand (read+write) accesses
system.l2.demand_accesses::.switch_cpus.inst          518                       # number of demand (read+write) accesses
system.l2.demand_accesses::.switch_cpus.data       479622                       # number of demand (read+write) accesses
system.l2.demand_accesses::total               480145                       # number of demand (read+write) accesses
system.l2.demand_avg_miss_latency::.switch_cpus.inst 90695.945946                       # average overall miss latency
system.l2.demand_avg_miss_latency::.switch_cpus.data 93618.292912                       # average overall miss latency
system.l2.demand_avg_miss_latency::total 93598.799009                       # average overall miss latency
system.l2.demand_avg_mshr_miss_latency::.switch_cpus.inst 80695.945946                       # average overall mshr miss latency
system.l2.demand_avg_mshr_miss_latency::.switch_cpus.data 83618.292912                       # average overall mshr miss latency
system.l2.demand_avg_mshr_miss_latency::total 83603.402485                       # average overall mshr miss latency
system.l2.demand_hits::.switch_cpus.data       378479                       # number of demand (read+write) hits
system.l2.demand_hits::total                   378479                       # number of demand (read+write) hits
system.l2.demand_miss_latency::.switch_cpus.inst     46980500                       # number of demand (read+write) miss cycles
system.l2.demand_miss_latency::.switch_cpus.data   9468835000                       # number of demand (read+write) miss cycles
system.l2.demand_miss_latency::total       9515815500                       # number of demand (read+write) miss cycles
system.l2.demand_miss_rate::.cpu.inst               1                       # miss rate for demand accesses
system.l2.demand_miss_rate::.cpu.data               1                       # miss rate for demand accesses
system.l2.demand_miss_rate::.switch_cpus.inst            1                       # miss rate for demand accesses
system.l2.demand_miss_rate::.switch_cpus.data     0.210881                       # miss rate for demand accesses
system.l2.demand_miss_rate::total            0.211740                       # miss rate for demand accesses
system.l2.demand_misses::.cpu.inst                  2                       # number of demand (read+write) misses
system.l2.demand_misses::.cpu.data                  3                       # number of demand (read+write) misses
system.l2.demand_misses::.switch_cpus.inst          518                       # number of demand (read+write) misses
system.l2.demand_misses::.switch_cpus.data       101143                       # number of demand (read+write) misses
system.l2.demand_misses::total                 101666                       # number of demand (read+write) misses
system.l2.demand_mshr_miss_latency::.switch_cpus.inst     41800500                       # number of demand (read+write) MSHR miss cycles
system.l2.demand_mshr_miss_latency::.switch_cpus.data   8457405000                       # number of demand (read+write) MSHR miss cycles
system.l2.demand_mshr_miss_latency::total   8499205500                       # number of demand (read+write) MSHR miss cycles
system.l2.demand_mshr_miss_rate::.switch_cpus.inst            1                       # mshr miss rate for demand accesses
system.l2.demand_mshr_miss_rate::.switch_cpus.data     0.210881                       # mshr miss rate for demand accesses
system.l2.demand_mshr_miss_rate::total       0.211730                       # mshr miss rate for demand accesses
system.l2.demand_mshr_misses::.switch_cpus.inst          518                       # number of demand (read+write) MSHR misses
system.l2.demand_mshr_misses::.switch_cpus.data       101143                       # number of demand (read+write) MSHR misses
system.l2.demand_mshr_misses::total            101661                       # number of demand (read+write) MSHR misses
system.l2.overall_accesses::.cpu.inst               2                       # number of overall (read+write) accesses
system.l2.overall_accesses::.cpu.data               3                       # number of overall (read+write) accesses
system.l2.overall_accesses::.switch_cpus.inst          518                       # number of overall (read+write) accesses
system.l2.overall_accesses::.switch_cpus.data       479622                       # number of overall (read+write) accesses
system.l2.overall_accesses::total              480145                       # number of overall (read+write) accesses
system.l2.overall_avg_miss_latency::.switch_cpus.inst 90695.945946                       # average overall miss latency
system.l2.overall_avg_miss_latency::.switch_cpus.data 93618.292912                       # average overall miss latency
system.l2.overall_avg_miss_latency::total 93598.799009                       # average overall miss latency
system.l2.overall_avg_mshr_miss_latency::.switch_cpus.inst 80695.945946                       # average overall mshr miss latency
system.l2.overall_avg_mshr_miss_latency::.switch_cpus.data 83618.292912                       # average overall mshr miss latency
system.l2.overall_avg_mshr_miss_latency::total 83603.402485                       # average overall mshr miss latency
system.l2.overall_hits::.switch_cpus.data       378479                       # number of overall hits
system.l2.overall_hits::total                  378479                       # number of overall hits
system.l2.overall_miss_latency::.switch_cpus.inst     46980500                       # number of overall miss cycles
system.l2.overall_miss_latency::.switch_cpus.data   9468835000                       # number of overall miss cycles
system.l2.overall_miss_latency::total      9515815500                       # number of overall miss cycles
system.l2.overall_miss_rate::.cpu.inst              1                       # miss rate for overall accesses
system.l2.overall_miss_rate::.cpu.data              1                       # miss rate for overall accesses
system.l2.overall_miss_rate::.switch_cpus.inst            1                       # miss rate for overall accesses
system.l2.overall_miss_rate::.switch_cpus.data     0.210881                       # miss rate for overall accesses
system.l2.overall_miss_rate::total           0.211740                       # miss rate for overall accesses
system.l2.overall_misses::.cpu.inst                 2                       # number of overall misses
system.l2.overall_misses::.cpu.data                 3                       # number of overall misses
system.l2.overall_misses::.switch_cpus.inst          518                       # number of overall misses
system.l2.overall_misses::.switch_cpus.data       101143                       # number of overall misses
system.l2.overall_misses::total                101666                       # number of overall misses
system.l2.overall_mshr_miss_latency::.switch_cpus.inst     41800500                       # number of overall MSHR miss cycles
system.l2.overall_mshr_miss_latency::.switch_cpus.data   8457405000                       # number of overall MSHR miss cycles
system.l2.overall_mshr_miss_latency::total   8499205500                       # number of overall MSHR miss cycles
system.l2.overall_mshr_miss_rate::.switch_cpus.inst            1                       # mshr miss rate for overall accesses
system.l2.overall_mshr_miss_rate::.switch_cpus.data     0.210881                       # mshr miss rate for overall accesses
system.l2.overall_mshr_miss_rate::total      0.211730                       # mshr miss rate for overall accesses
system.l2.overall_mshr_misses::.switch_cpus.inst          518                       # number of overall MSHR misses
system.l2.overall_mshr_misses::.switch_cpus.data       101143                       # number of overall MSHR misses
system.l2.overall_mshr_misses::total           101661                       # number of overall MSHR misses
system.l2.pwrStateResidencyTicks::UNDEFINED 2074747018000                       # Cumulative time (in ticks) in various power states
system.l2.replacements                          68931                       # number of replacements
system.l2.tags.age_task_id_blocks_1024::0           47                       # Occupied blocks per task id
system.l2.tags.age_task_id_blocks_1024::1          210                       # Occupied blocks per task id
system.l2.tags.age_task_id_blocks_1024::2         3729                       # Occupied blocks per task id
system.l2.tags.age_task_id_blocks_1024::3        25193                       # Occupied blocks per task id
system.l2.tags.age_task_id_blocks_1024::4         3589                       # Occupied blocks per task id
system.l2.tags.avg_refs                      9.432630                       # Average number of references to valid blocks.
system.l2.tags.data_accesses                 15450323                       # Number of data accesses
system.l2.tags.occ_blocks::.writebacks       2.867232                       # Average occupied blocks per requestor
system.l2.tags.occ_blocks::.cpu.inst         0.869665                       # Average occupied blocks per requestor
system.l2.tags.occ_blocks::.cpu.data         1.337292                       # Average occupied blocks per requestor
system.l2.tags.occ_blocks::.switch_cpus.inst   133.875848                       # Average occupied blocks per requestor
system.l2.tags.occ_blocks::.switch_cpus.data 23936.158375                       # Average occupied blocks per requestor
system.l2.tags.occ_percent::.writebacks      0.000088                       # Average percentage of cache occupancy
system.l2.tags.occ_percent::.cpu.inst        0.000027                       # Average percentage of cache occupancy
system.l2.tags.occ_percent::.cpu.data        0.000041                       # Average percentage of cache occupancy
system.l2.tags.occ_percent::.switch_cpus.inst     0.004086                       # Average percentage of cache occupancy
system.l2.tags.occ_percent::.switch_cpus.data     0.730474                       # Average percentage of cache occupancy
system.l2.tags.occ_percent::total            0.734714                       # Average percentage of cache occupancy
system.l2.tags.occ_task_id_blocks::1024         32768                       # Occupied blocks per task id
system.l2.tags.occ_task_id_percent::1024            1                       # Percentage of cache occupancy per task id
system.l2.tags.pwrStateResidencyTicks::UNDEFINED 2074747018000                       # Cumulative time (in ticks) in various power states
system.l2.tags.sampled_refs                    101699                       # Sample count of references to valid blocks.
system.l2.tags.tag_accesses                  15450323                       # Number of tag accesses
system.l2.tags.tagsinuse                 24075.108412                       # Cycle average of tags in use
system.l2.tags.total_refs                      959289                       # Total number of references to valid blocks.
system.l2.tags.warmup_cycle              2044718390500                       # Cycle when the warmup percentage was hit.
system.l2.writebacks::.writebacks               49073                       # number of writebacks
system.l2.writebacks::total                     49073                       # number of writebacks
system.mem_ctrls.avgBusLat                    5000.00                       # Average bus latency per DRAM burst
system.mem_ctrls.avgGap                     199214.16                       # Average gap between requests
system.mem_ctrls.avgMemAccLat                42378.06                       # Average memory access latency per DRAM burst
system.mem_ctrls.avgPriority_.writebacks::samples     49073.00                       # Average QoS priority value for accepted requests
system.mem_ctrls.avgPriority_.switch_cpus.inst::samples       518.00                       # Average QoS priority value for accepted requests
system.mem_ctrls.avgPriority_.switch_cpus.data::samples    101126.00                       # Average QoS priority value for accepted requests
system.mem_ctrls.avgQLat                     23628.06                       # Average queueing delay per DRAM burst
system.mem_ctrls.avgRdBW                       216.63                       # Average DRAM read bandwidth in MiByte/s
system.mem_ctrls.avgRdBWSys                    216.67                       # Average system read bandwidth in MiByte/s
system.mem_ctrls.avgRdQLen                       1.13                       # Average read queue length when enqueuing
system.mem_ctrls.avgWrBW                       104.54                       # Average achieved write bandwidth in MiByte/s
system.mem_ctrls.avgWrBWSys                    104.59                       # Average system write bandwidth in MiByte/s
system.mem_ctrls.avgWrQLen                      14.41                       # Average write queue length when enqueuing
system.mem_ctrls.busUtil                         2.51                       # Data bus utilization in percentage
system.mem_ctrls.busUtilRead                     1.69                       # Data bus utilization in percentage for reads
system.mem_ctrls.busUtilWrite                    0.82                       # Data bus utilization in percentage for writes
system.mem_ctrls.bw_inst_read::.cpu.inst         4263                       # Instruction read bandwidth from this memory (bytes/s)
system.mem_ctrls.bw_inst_read::.switch_cpus.inst      1104013                       # Instruction read bandwidth from this memory (bytes/s)
system.mem_ctrls.bw_inst_read::total          1108276                       # Instruction read bandwidth from this memory (bytes/s)
system.mem_ctrls.bw_read::.cpu.inst              4263                       # Total read bandwidth from this memory (bytes/s)
system.mem_ctrls.bw_read::.cpu.data              6394                       # Total read bandwidth from this memory (bytes/s)
system.mem_ctrls.bw_read::.switch_cpus.inst      1104013                       # Total read bandwidth from this memory (bytes/s)
system.mem_ctrls.bw_read::.switch_cpus.data    215566024                       # Total read bandwidth from this memory (bytes/s)
system.mem_ctrls.bw_read::total             216680694                       # Total read bandwidth from this memory (bytes/s)
system.mem_ctrls.bw_total::.writebacks      104589260                       # Total bandwidth to/from this memory (bytes/s)
system.mem_ctrls.bw_total::.cpu.inst             4263                       # Total bandwidth to/from this memory (bytes/s)
system.mem_ctrls.bw_total::.cpu.data             6394                       # Total bandwidth to/from this memory (bytes/s)
system.mem_ctrls.bw_total::.switch_cpus.inst      1104013                       # Total bandwidth to/from this memory (bytes/s)
system.mem_ctrls.bw_total::.switch_cpus.data    215566024                       # Total bandwidth to/from this memory (bytes/s)
system.mem_ctrls.bw_total::total            321269953                       # Total bandwidth to/from this memory (bytes/s)
system.mem_ctrls.bw_write::.writebacks      104589260                       # Write bandwidth from this memory (bytes/s)
system.mem_ctrls.bw_write::total            104589260                       # Write bandwidth from this memory (bytes/s)
system.mem_ctrls.bytesPerActivate::samples        77763                       # Bytes accessed per row activation
system.mem_ctrls.bytesPerActivate::mean    124.019084                       # Bytes accessed per row activation
system.mem_ctrls.bytesPerActivate::gmean    85.359090                       # Bytes accessed per row activation
system.mem_ctrls.bytesPerActivate::stdev   188.670270                       # Bytes accessed per row activation
system.mem_ctrls.bytesPerActivate::0-127        60752     78.12%     78.12% # Bytes accessed per row activation
system.mem_ctrls.bytesPerActivate::128-255        10675     13.73%     91.85% # Bytes accessed per row activation
system.mem_ctrls.bytesPerActivate::256-383         1838      2.36%     94.22% # Bytes accessed per row activation
system.mem_ctrls.bytesPerActivate::384-511          793      1.02%     95.24% # Bytes accessed per row activation
system.mem_ctrls.bytesPerActivate::512-639          507      0.65%     95.89% # Bytes accessed per row activation
system.mem_ctrls.bytesPerActivate::640-767          242      0.31%     96.20% # Bytes accessed per row activation
system.mem_ctrls.bytesPerActivate::768-895          222      0.29%     96.48% # Bytes accessed per row activation
system.mem_ctrls.bytesPerActivate::896-1023          309      0.40%     96.88% # Bytes accessed per row activation
system.mem_ctrls.bytesPerActivate::1024-1151         2425      3.12%    100.00% # Bytes accessed per row activation
system.mem_ctrls.bytesPerActivate::total        77763                       # Bytes accessed per row activation
system.mem_ctrls.bytesReadDRAM                6505216                       # Total number of bytes read from DRAM
system.mem_ctrls.bytesReadSys                 6506304                       # Total read bytes from the system interface side
system.mem_ctrls.bytesReadWrQ                    1088                       # Total number of bytes read from write queue
system.mem_ctrls.bytesWritten                 3139264                       # Total number of bytes written to DRAM
system.mem_ctrls.bytesWrittenSys              3140672                       # Total written bytes from the system interface side
system.mem_ctrls.bytes_inst_read::.cpu.inst          128                       # Number of instructions bytes read from this memory
system.mem_ctrls.bytes_inst_read::.switch_cpus.inst        33152                       # Number of instructions bytes read from this memory
system.mem_ctrls.bytes_inst_read::total         33280                       # Number of instructions bytes read from this memory
system.mem_ctrls.bytes_read::.cpu.inst            128                       # Number of bytes read from this memory
system.mem_ctrls.bytes_read::.cpu.data            192                       # Number of bytes read from this memory
system.mem_ctrls.bytes_read::.switch_cpus.inst        33152                       # Number of bytes read from this memory
system.mem_ctrls.bytes_read::.switch_cpus.data      6473152                       # Number of bytes read from this memory
system.mem_ctrls.bytes_read::total            6506624                       # Number of bytes read from this memory
system.mem_ctrls.bytes_written::.writebacks      3140672                       # Number of bytes written to this memory
system.mem_ctrls.bytes_written::total         3140672                       # Number of bytes written to this memory
system.mem_ctrls.masterReadAccesses::.switch_cpus.inst          518                       # Per-master read serviced memory accesses
system.mem_ctrls.masterReadAccesses::.switch_cpus.data       101143                       # Per-master read serviced memory accesses
system.mem_ctrls.masterReadAvgLat::.switch_cpus.inst     39550.68                       # Per-master read average memory access latency
system.mem_ctrls.masterReadAvgLat::.switch_cpus.data     42385.42                       # Per-master read average memory access latency
system.mem_ctrls.masterReadBytes::.switch_cpus.inst        33152                       # Per-master bytes read from memory
system.mem_ctrls.masterReadBytes::.switch_cpus.data      6472064                       # Per-master bytes read from memory
system.mem_ctrls.masterReadRate::.switch_cpus.inst 1104013.134532710304                       # Per-master bytes read from memory rate (Bytes/sec)
system.mem_ctrls.masterReadRate::.switch_cpus.data 215529791.974430263042                       # Per-master bytes read from memory rate (Bytes/sec)
system.mem_ctrls.masterReadTotalLat::.switch_cpus.inst     20487250                       # Per-master read total memory access latency
system.mem_ctrls.masterReadTotalLat::.switch_cpus.data   4286988250                       # Per-master read total memory access latency
system.mem_ctrls.masterWriteAccesses::.writebacks        49073                       # Per-master write serviced memory accesses
system.mem_ctrls.masterWriteAvgLat::.writebacks   8262588.12                       # Per-master write average memory access latency
system.mem_ctrls.masterWriteBytes::.writebacks      3139264                       # Per-master bytes write to memory
system.mem_ctrls.masterWriteRate::.writebacks 104542371.162092626095                       # Per-master bytes write to memory rate (Bytes/sec)
system.mem_ctrls.masterWriteTotalLat::.writebacks 405469987000                       # Per-master write total memory access latency
system.mem_ctrls.mergedWrBursts                     0                       # Number of DRAM write bursts merged with an existing one
system.mem_ctrls.neitherReadNorWriteReqs            0                       # Number of requests that are neither read nor write
system.mem_ctrls.numRdRetry                         0                       # Number of times read queue was full causing retry
system.mem_ctrls.numReadWriteTurnArounds         2845                       # Number of turnarounds from READ to WRITE
system.mem_ctrls.numStayReadState              251389                       # Number of times bus staying in READ state
system.mem_ctrls.numStayWriteState              46279                       # Number of times bus staying in WRITE state
system.mem_ctrls.numWrRetry                         0                       # Number of times write queue was full causing retry
system.mem_ctrls.numWriteReadTurnArounds         2845                       # Number of turnarounds from WRITE to READ
system.mem_ctrls.num_reads::.cpu.inst               2                       # Number of read requests responded to by this memory
system.mem_ctrls.num_reads::.cpu.data               3                       # Number of read requests responded to by this memory
system.mem_ctrls.num_reads::.switch_cpus.inst          518                       # Number of read requests responded to by this memory
system.mem_ctrls.num_reads::.switch_cpus.data       101143                       # Number of read requests responded to by this memory
system.mem_ctrls.num_reads::total              101666                       # Number of read requests responded to by this memory
system.mem_ctrls.num_writes::.writebacks        49073                       # Number of write requests responded to by this memory
system.mem_ctrls.num_writes::total              49073                       # Number of write requests responded to by this memory
system.mem_ctrls.pageHitRate                    48.39                       # Row buffer hit rate, read and write combined
system.mem_ctrls.peakBW                      12800.00                       # Theoretical peak bandwidth in MiByte/s
system.mem_ctrls.perBankRdBursts::0              6233                       # Per bank write bursts
system.mem_ctrls.perBankRdBursts::1              6031                       # Per bank write bursts
system.mem_ctrls.perBankRdBursts::2              6204                       # Per bank write bursts
system.mem_ctrls.perBankRdBursts::3              6190                       # Per bank write bursts
system.mem_ctrls.perBankRdBursts::4              6180                       # Per bank write bursts
system.mem_ctrls.perBankRdBursts::5              6382                       # Per bank write bursts
system.mem_ctrls.perBankRdBursts::6              6236                       # Per bank write bursts
system.mem_ctrls.perBankRdBursts::7              6679                       # Per bank write bursts
system.mem_ctrls.perBankRdBursts::8              6360                       # Per bank write bursts
system.mem_ctrls.perBankRdBursts::9              6496                       # Per bank write bursts
system.mem_ctrls.perBankRdBursts::10             6531                       # Per bank write bursts
system.mem_ctrls.perBankRdBursts::11             6529                       # Per bank write bursts
system.mem_ctrls.perBankRdBursts::12             6421                       # Per bank write bursts
system.mem_ctrls.perBankRdBursts::13             6524                       # Per bank write bursts
system.mem_ctrls.perBankRdBursts::14             6409                       # Per bank write bursts
system.mem_ctrls.perBankRdBursts::15             6239                       # Per bank write bursts
system.mem_ctrls.perBankWrBursts::0              3017                       # Per bank write bursts
system.mem_ctrls.perBankWrBursts::1              2887                       # Per bank write bursts
system.mem_ctrls.perBankWrBursts::2              3017                       # Per bank write bursts
system.mem_ctrls.perBankWrBursts::3              2941                       # Per bank write bursts
system.mem_ctrls.perBankWrBursts::4              2963                       # Per bank write bursts
system.mem_ctrls.perBankWrBursts::5              2978                       # Per bank write bursts
system.mem_ctrls.perBankWrBursts::6              2843                       # Per bank write bursts
system.mem_ctrls.perBankWrBursts::7              3233                       # Per bank write bursts
system.mem_ctrls.perBankWrBursts::8              3035                       # Per bank write bursts
system.mem_ctrls.perBankWrBursts::9              3173                       # Per bank write bursts
system.mem_ctrls.perBankWrBursts::10             3184                       # Per bank write bursts
system.mem_ctrls.perBankWrBursts::11             3213                       # Per bank write bursts
system.mem_ctrls.perBankWrBursts::12             3137                       # Per bank write bursts
system.mem_ctrls.perBankWrBursts::13             3208                       # Per bank write bursts
system.mem_ctrls.perBankWrBursts::14             3167                       # Per bank write bursts
system.mem_ctrls.perBankWrBursts::15             3055                       # Per bank write bursts
system.mem_ctrls.priorityMaxLatency      0.001543660250                       # per QoS priority maximum request to response latency (s)
system.mem_ctrls.priorityMinLatency      0.000000018750                       # per QoS priority minimum request to response latency (s)
system.mem_ctrls.pwrStateResidencyTicks::UNDEFINED 2074747018000                       # Cumulative time (in ticks) in various power states
system.mem_ctrls.rdPerTurnAround::samples         2845                       # Reads before turning the bus around for writes
system.mem_ctrls.rdPerTurnAround::mean      35.725835                       # Reads before turning the bus around for writes
system.mem_ctrls.rdPerTurnAround::gmean     19.548087                       # Reads before turning the bus around for writes
system.mem_ctrls.rdPerTurnAround::stdev    594.219875                       # Reads before turning the bus around for writes
system.mem_ctrls.rdPerTurnAround::0-1023         2839     99.79%     99.79% # Reads before turning the bus around for writes
system.mem_ctrls.rdPerTurnAround::1024-2047            4      0.14%     99.93% # Reads before turning the bus around for writes
system.mem_ctrls.rdPerTurnAround::3072-4095            1      0.04%     99.96% # Reads before turning the bus around for writes
system.mem_ctrls.rdPerTurnAround::30720-31743            1      0.04%    100.00% # Reads before turning the bus around for writes
system.mem_ctrls.rdPerTurnAround::total          2845                       # Reads before turning the bus around for writes
system.mem_ctrls.rdQLenPdf::0                   81330                       # What read queue length does an incoming req see
system.mem_ctrls.rdQLenPdf::1                   12126                       # What read queue length does an incoming req see
system.mem_ctrls.rdQLenPdf::2                    5266                       # What read queue length does an incoming req see
system.mem_ctrls.rdQLenPdf::3                    2915                       # What read queue length does an incoming req see
system.mem_ctrls.rdQLenPdf::4                       6                       # What read queue length does an incoming req see
system.mem_ctrls.rdQLenPdf::5                       1                       # What read queue length does an incoming req see
system.mem_ctrls.rdQLenPdf::6                       0                       # What read queue length does an incoming req see
system.mem_ctrls.rdQLenPdf::7                       0                       # What read queue length does an incoming req see
[...]
system.switch_cpus.iq.fp_inst_queue_writes           66                       # Number of floating instruction queue writes
system.switch_cpus.iq.fu_busy_cnt             1364180                       # FU busy when requested
system.switch_cpus.iq.fu_busy_rate           0.010056                       # FU busy rate (busy events/executed inst)
system.switch_cpus.iq.fu_full::No_OpClass            0      0.00%      0.00% # attempts to use FU when none available
system.switch_cpus.iq.fu_full::IntAlu          662839     48.59%     48.59% # attempts to use FU when none available
system.switch_cpus.iq.fu_full::IntMult              0      0.00%     48.59% # attempts to use FU when none available
system.switch_cpus.iq.fu_full::IntDiv               0      0.00%     48.59% # attempts to use FU when none available
system.switch_cpus.iq.fu_full::FloatAdd             0      0.00%     48.59% # attempts to use FU when none available
system.switch_cpus.iq.fu_full::FloatCmp             0      0.00%     48.59% # attempts to use FU when none available
system.switch_cpus.iq.fu_full::FloatCvt             0      0.00%     48.59% # attempts to use FU when none available
system.switch_cpus.iq.fu_full::FloatMult            0      0.00%     48.59% # attempts to use FU when none available
system.switch_cpus.iq.fu_full::FloatMultAcc            0      0.00%     48.59% # attempts to use FU when none available
system.switch_cpus.iq.fu_full::FloatDiv             0      0.00%     48.59% # attempts to use FU when none available
system.switch_cpus.iq.fu_full::FloatMisc            0      0.00%     48.59% # attempts to use FU when none available
system.switch_cpus.iq.fu_full::FloatSqrt            0      0.00%     48.59% # attempts to use FU when none available
system.switch_cpus.iq.fu_full::SimdAdd              0      0.00%     48.59% # attempts to use FU when none available
system.switch_cpus.iq.fu_full::SimdAddAcc            0      0.00%     48.59% # attempts to use FU when none available
system.switch_cpus.iq.fu_full::SimdAlu              0      0.00%     48.59% # attempts to use FU when none available
system.switch_cpus.iq.fu_full::SimdCmp              0      0.00%     48.59% # attempts to use FU when none available
system.switch_cpus.iq.fu_full::SimdCvt              0      0.00%     48.59% # attempts to use FU when none available
system.switch_cpus.iq.fu_full::SimdMisc             0      0.00%     48.59% # attempts to use FU when none available
system.switch_cpus.iq.fu_full::SimdMult             0      0.00%     48.59% # attempts to use FU when none available
system.switch_cpus.iq.fu_full::SimdMultAcc            0      0.00%     48.59% # attempts to use FU when none available
system.switch_cpus.iq.fu_full::SimdShift            0      0.00%     48.59% # attempts to use FU when none available
system.switch_cpus.iq.fu_full::SimdShiftAcc            0      0.00%     48.59% # attempts to use FU when none available
system.switch_cpus.iq.fu_full::SimdSqrt             0      0.00%     48.59% # attempts to use FU when none available
system.switch_cpus.iq.fu_full::SimdFloatAdd            0      0.00%     48.59% # attempts to use FU when none available
system.switch_cpus.iq.fu_full::SimdFloatAlu            0      0.00%     48.59% # attempts to use FU when none available
system.switch_cpus.iq.fu_full::SimdFloatCmp            0      0.00%     48.59% # attempts to use FU when none available
system.switch_cpus.iq.fu_full::SimdFloatCvt            0      0.00%     48.59% # attempts to use FU when none available
system.switch_cpus.iq.fu_full::SimdFloatDiv            0      0.00%     48.59% # attempts to use FU when none available
system.switch_cpus.iq.fu_full::SimdFloatMisc            0      0.00%     48.59% # attempts to use FU when none available
system.switch_cpus.iq.fu_full::SimdFloatMult            0      0.00%     48.59% # attempts to use FU when none available
system.switch_cpus.iq.fu_full::SimdFloatMultAcc            0      0.00%     48.59% # attempts to use FU when none available
system.switch_cpus.iq.fu_full::SimdFloatSqrt            0      0.00%     48.59% # attempts to use FU when none available
system.switch_cpus.iq.fu_full::SimdAes              0      0.00%     48.59% # attempts to use FU when none available
system.switch_cpus.iq.fu_full::SimdAesMix            0      0.00%     48.59% # attempts to use FU when none available
system.switch_cpus.iq.fu_full::SimdSha1Hash            0      0.00%     48.59% # attempts to use FU when none available
system.switch_cpus.iq.fu_full::SimdSha1Hash2            0      0.00%     48.59% # attempts to use FU when none available
system.switch_cpus.iq.fu_full::SimdSha256Hash            0      0.00%     48.59% # attempts to use FU when none available
system.switch_cpus.iq.fu_full::SimdSha256Hash2            0      0.00%     48.59% # attempts to use FU when none available
system.switch_cpus.iq.fu_full::SimdShaSigma2            0      0.00%     48.59% # attempts to use FU when none available
system.switch_cpus.iq.fu_full::SimdShaSigma3            0      0.00%     48.59% # attempts to use FU when none available
system.switch_cpus.iq.fu_full::MemRead         668900     49.03%     97.62% # attempts to use FU when none available
system.switch_cpus.iq.fu_full::MemWrite         32441      2.38%    100.00% # attempts to use FU when none available
system.switch_cpus.iq.fu_full::FloatMemRead            0      0.00%    100.00% # attempts to use FU when none available
system.switch_cpus.iq.fu_full::FloatMemWrite            0      0.00%    100.00% # attempts to use FU when none available
system.switch_cpus.iq.fu_full::IprAccess            0      0.00%    100.00% # attempts to use FU when none available
system.switch_cpus.iq.fu_full::InstPrefetch            0      0.00%    100.00% # attempts to use FU when none available
system.switch_cpus.iq.int_alu_accesses      137008723                       # Number of integer alu accesses
system.switch_cpus.iq.int_inst_queue_reads    332687381                       # Number of integer instruction queue reads
system.switch_cpus.iq.int_inst_queue_wakeup_accesses    132487849                       # Number of integer instruction queue wakeup accesses
system.switch_cpus.iq.int_inst_queue_writes    201262949                       # Number of integer instruction queue writes
system.switch_cpus.iq.iqInstsAdded          150626127                       # Number of instructions added to the IQ (excludes non-spec)
system.switch_cpus.iq.iqInstsIssued         135652771                       # Number of instructions issued
system.switch_cpus.iq.iqSquashedInstsExamined     50626088                       # Number of squashed instructions iterated over during squash; mainly for profiling
system.switch_cpus.iq.iqSquashedInstsIssued        16348                       # Number of squashed instructions issued
system.switch_cpus.iq.iqSquashedOperandsExamined     27769840                       # Number of squashed operands that are examined and possibly removed from graph
system.switch_cpus.iq.issued_per_cycle::samples     60001350                       # Number of insts issued each cycle
system.switch_cpus.iq.issued_per_cycle::mean     2.260829                       # Number of insts issued each cycle
system.switch_cpus.iq.issued_per_cycle::stdev     2.398558                       # Number of insts issued each cycle
system.switch_cpus.iq.issued_per_cycle::underflows            0      0.00%      0.00% # Number of insts issued each cycle
system.switch_cpus.iq.issued_per_cycle::0     23307131     38.84%     38.84% # Number of insts issued each cycle
system.switch_cpus.iq.issued_per_cycle::1      5820132      9.70%     48.54% # Number of insts issued each cycle
system.switch_cpus.iq.issued_per_cycle::2      7010079     11.68%     60.23% # Number of insts issued each cycle
system.switch_cpus.iq.issued_per_cycle::3      5584274      9.31%     69.53% # Number of insts issued each cycle
system.switch_cpus.iq.issued_per_cycle::4      5709130      9.52%     79.05% # Number of insts issued each cycle
system.switch_cpus.iq.issued_per_cycle::5      5087813      8.48%     87.53% # Number of insts issued each cycle
system.switch_cpus.iq.issued_per_cycle::6      3247518      5.41%     92.94% # Number of insts issued each cycle
system.switch_cpus.iq.issued_per_cycle::7      2583218      4.31%     97.25% # Number of insts issued each cycle
system.switch_cpus.iq.issued_per_cycle::8      1652055      2.75%    100.00% # Number of insts issued each cycle
system.switch_cpus.iq.issued_per_cycle::overflows            0      0.00%    100.00% # Number of insts issued each cycle
system.switch_cpus.iq.issued_per_cycle::min_value            0                       # Number of insts issued each cycle
system.switch_cpus.iq.issued_per_cycle::max_value            8                       # Number of insts issued each cycle
system.switch_cpus.iq.issued_per_cycle::total     60001350                       # Number of insts issued each cycle
system.switch_cpus.iq.rate                   2.258725                       # Inst issue rate
system.switch_cpus.iq.vec_alu_accesses              0                       # Number of vector alu accesses
system.switch_cpus.iq.vec_inst_queue_reads            0                       # Number of vector instruction queue reads
system.switch_cpus.iq.vec_inst_queue_wakeup_accesses            0                       # Number of vector instruction queue wakeup accesses
system.switch_cpus.iq.vec_inst_queue_writes            0                       # Number of vector instruction queue writes
system.switch_cpus.itb.data_accesses                0                       # DTB accesses
system.switch_cpus.itb.data_acv                     0                       # DTB access violations
system.switch_cpus.itb.data_hits                    0                       # DTB hits
system.switch_cpus.itb.data_misses                  0                       # DTB misses
system.switch_cpus.itb.fetch_accesses        14812809                       # ITB accesses
system.switch_cpus.itb.fetch_acv                    0                       # ITB acv
system.switch_cpus.itb.fetch_hits            14800304                       # ITB hits
system.switch_cpus.itb.fetch_misses             12505                       # ITB misses
system.switch_cpus.itb.pwrStateResidencyTicks::UNDEFINED 2074747018000                       # Cumulative time (in ticks) in various power states
system.switch_cpus.itb.read_accesses                0                       # DTB read accesses
system.switch_cpus.itb.read_acv                     0                       # DTB read access violations
system.switch_cpus.itb.read_hits                    0                       # DTB read hits
system.switch_cpus.itb.read_misses                  0                       # DTB read misses
system.switch_cpus.itb.write_accesses               0                       # DTB write accesses
system.switch_cpus.itb.write_acv                    0                       # DTB write access violations
system.switch_cpus.itb.write_hits                   0                       # DTB write hits
system.switch_cpus.itb.write_misses                 0                       # DTB write misses
system.switch_cpus.memDep0.conflictingLoads      8659865                       # Number of conflicting loads.
system.switch_cpus.memDep0.conflictingStores      5547875                       # Number of conflicting stores.
system.switch_cpus.memDep0.insertedLoads     38349010                       # Number of loads inserted to the mem dependence unit.
system.switch_cpus.memDep0.insertedStores     18262570                       # Number of stores inserted to the mem dependence unit.
system.switch_cpus.numCycles                 60057236                       # number of cpu cycles simulated
system.switch_cpus.numWorkItemsCompleted            0                       # number of work items this cpu completed
system.switch_cpus.numWorkItemsStarted              0                       # number of work items this cpu started
system.switch_cpus.pwrStateResidencyTicks::OFF  30028628250                       # Cumulative time (in ticks) in various power states
system.switch_cpus.rename.BlockCycles         8227662                       # Number of cycles rename is blocking
system.switch_cpus.rename.CommittedMaps      82626209                       # Number of HB maps that are committed
system.switch_cpus.rename.IQFullEvents        2283155                       # Number of times rename has blocked due to IQ full
system.switch_cpus.rename.IdleCycles         11399077                       # Number of cycles rename is idle
system.switch_cpus.rename.LQFullEvents       12870895                       # Number of times rename has blocked due to LQ full
system.switch_cpus.rename.ROBFullEvents         79898                       # Number of times rename has blocked due to ROB full
system.switch_cpus.rename.RenameLookups     212792419                       # Number of register rename lookups that rename has made
system.switch_cpus.rename.RenamedInsts      153153714                       # Number of instructions processed by rename
system.switch_cpus.rename.RenamedOperands    126100330                       # Number of destination operands rename has renamed
system.switch_cpus.rename.RunCycles          20924750                       # Number of cycles rename is running
system.switch_cpus.rename.SQFullEvents        4175615                       # Number of times rename has blocked due to SQ full
system.switch_cpus.rename.SquashCycles         554567                       # Number of cycles rename is squashing
system.switch_cpus.rename.UnblockCycles      18895293                       # Number of cycles rename is unblocking
system.switch_cpus.rename.UndoneMaps         43474076                       # Number of HB maps that are undone due to squashing
system.switch_cpus.rename.fp_rename_lookups           38                       # Number of floating rename lookups
system.switch_cpus.rename.int_rename_lookups    212792381                       # Number of integer rename lookups
system.switch_cpus.rename.serializeStallCycles            0                       # count of cycles rename stalled for serializing inst
system.switch_cpus.rename.serializingInsts            0                       # count of serializing insts renamed
system.switch_cpus.rename.skidInsts          12827713                       # count of insts added to the skid buffer
system.switch_cpus.rename.tempSerializingInsts            0                       # count of temporary serializing insts renamed
system.switch_cpus.rob.rob_reads            186001634                       # The number of ROB reads
system.switch_cpus.rob.rob_writes           292190380                       # The number of ROB writes
system.switch_cpus.timesIdled                     467                       # Number of times that the entire CPU went into an idle state and unscheduled itself
system.tol2bus.pkt_count_system.cpu.icache.mem_side::system.l2.cpu_side         1071                       # Packet count per connected master and slave (bytes)
system.tol2bus.pkt_count_system.cpu.dcache.mem_side::system.l2.cpu_side      1438363                       # Packet count per connected master and slave (bytes)
system.tol2bus.pkt_count::total               1439434                       # Packet count per connected master and slave (bytes)
system.tol2bus.pkt_size_system.cpu.icache.mem_side::system.l2.cpu_side        35264                       # Cumulative packet size per connected master and slave (bytes)
system.tol2bus.pkt_size_system.cpu.dcache.mem_side::system.l2.cpu_side     56323840                       # Cumulative packet size per connected master and slave (bytes)
system.tol2bus.pkt_size::total               56359104                       # Cumulative packet size per connected master and slave (bytes)
system.tol2bus.pwrStateResidencyTicks::UNDEFINED 2074747018000                       # Cumulative time (in ticks) in various power states
system.tol2bus.reqLayer0.occupancy          880108000                       # Layer occupancy (ticks)
system.tol2bus.reqLayer0.utilization              2.9                       # Layer utilization (%)
system.tol2bus.respLayer0.occupancy            777000                       # Layer occupancy (ticks)
system.tol2bus.respLayer0.utilization             0.0                       # Layer utilization (%)
system.tol2bus.respLayer1.occupancy         719433000                       # Layer occupancy (ticks)
system.tol2bus.respLayer1.utilization             2.4                       # Layer utilization (%)
system.tol2bus.snoopTraffic                   3140672                       # Total snoop traffic (bytes)
system.tol2bus.snoop_fanout::samples           549076                       # Request fanout histogram
system.tol2bus.snoop_fanout::mean            0.000803                       # Request fanout histogram
system.tol2bus.snoop_fanout::stdev           0.028329                       # Request fanout histogram
system.tol2bus.snoop_fanout::underflows             0      0.00%      0.00% # Request fanout histogram
system.tol2bus.snoop_fanout::0                 548635     99.92%     99.92% # Request fanout histogram
system.tol2bus.snoop_fanout::1                    441      0.08%    100.00% # Request fanout histogram
system.tol2bus.snoop_fanout::2                      0      0.00%    100.00% # Request fanout histogram
system.tol2bus.snoop_fanout::overflows              0      0.00%    100.00% # Request fanout histogram
system.tol2bus.snoop_fanout::min_value              0                       # Request fanout histogram
system.tol2bus.snoop_fanout::max_value              1                       # Request fanout histogram
system.tol2bus.snoop_fanout::total             549076                       # Request fanout histogram
system.tol2bus.snoop_filter.hit_multi_requests            0                       # Number of requests hitting in the snoop filter with multiple (>1) holders of the requested data.
system.tol2bus.snoop_filter.hit_multi_snoops            0                       # Number of snoops hitting in the snoop filter with multiple (>1) holders of the requested data.
system.tol2bus.snoop_filter.hit_single_requests       479144                       # Number of requests hitting in the snoop filter with a single holder of the requested data.
system.tol2bus.snoop_filter.hit_single_snoops          441                       # Number of snoops hitting in the snoop filter with a single holder of the requested data.
system.tol2bus.snoop_filter.tot_requests       959289                       # Total number of requests made to the snoop filter.
system.tol2bus.snoop_filter.tot_snoops            441                       # Total number of snoops made to the snoop filter.
system.tol2bus.snoops                           68931                       # Total snoops (count)
system.tol2bus.trans_dist::ReadResp            306883                       # Transaction distribution
system.tol2bus.trans_dist::WritebackDirty       449508                       # Transaction distribution
system.tol2bus.trans_dist::WritebackClean           31                       # Transaction distribution
system.tol2bus.trans_dist::CleanEvict           98536                       # Transaction distribution
system.tol2bus.trans_dist::ReadExReq           173262                       # Transaction distribution
system.tol2bus.trans_dist::ReadExResp          173262                       # Transaction distribution
system.tol2bus.trans_dist::ReadCleanReq           520                       # Transaction distribution
system.tol2bus.trans_dist::ReadSharedReq       306363                       # Transaction distribution
system.voltage_domain.voltage                       1                       # Voltage in Volts

---------- End Simulation Statistics   ----------
